<?xml version="1.0" encoding="UTF-8"?>

<!-- generated on 10/08/20 19:20:54 by Eclipse SUMO netconvert Version 1.2.0
<configuration xmlns:xsi="http://www.w3.org/2001/XMLSchema-instance" xsi:noNamespaceSchemaLocation="http://sumo.dlr.de/xsd/netconvertConfiguration.xsd">

    <input>
        <osm-files value="map.osm"/>
    </input>

    <output>
        <output-file value="map.net.xml"/>
    </output>

    <projection>
        <proj.utm value="true"/>
    </projection>

    <tls_building>
        <tls.discard-simple value="true"/>
        <tls.join value="true"/>
        <tls.guess-signals value="true"/>
        <tls.default-type value="actuated"/>
    </tls_building>

    <ramp_guessing>
        <ramps.guess value="true"/>
    </ramp_guessing>

    <edge_removal>
        <keep-edges.postload value="true"/>
    </edge_removal>

</configuration>
-->

<net version="1.1" junctionCornerDetail="5" limitTurnSpeed="5.50" xmlns:xsi="http://www.w3.org/2001/XMLSchema-instance" xsi:noNamespaceSchemaLocation="http://sumo.dlr.de/xsd/net_file.xsd">

    <location netOffset="-317309.58,-4155326.95" convBoundary="0.00,0.00,5881.26,5407.08" origBoundary="126.932510,37.526837,127.009306,37.588306" projParameter="+proj=utm +zone=52 +ellps=WGS84 +datum=WGS84 +units=m +no_defs"/>

    <type id="highway.bridleway" priority="1" numLanes="1" speed="2.78" allow="pedestrian" oneway="1" width="2.00"/>
    <type id="highway.bus_guideway" priority="1" numLanes="1" speed="27.78" allow="bus" oneway="1"/>
    <type id="highway.cycleway" priority="1" numLanes="1" speed="8.33" allow="bicycle" oneway="0" width="1.00"/>
    <type id="highway.footway" priority="1" numLanes="1" speed="2.78" allow="pedestrian" oneway="1" width="2.00"/>
    <type id="highway.ford" priority="1" numLanes="1" speed="2.78" allow="army" oneway="0"/>
    <type id="highway.living_street" priority="2" numLanes="1" speed="2.78" disallow="tram rail_urban rail rail_electric ship" oneway="0"/>
    <type id="highway.motorway" priority="14" numLanes="2" speed="39.44" allow="private emergency authority army vip passenger hov taxi bus coach delivery truck trailer motorcycle evehicle custom1 custom2" oneway="1"/>
    <type id="highway.motorway_link" priority="9" numLanes="1" speed="22.22" allow="private emergency authority army vip passenger hov taxi bus coach delivery truck trailer motorcycle evehicle custom1 custom2" oneway="1"/>
    <type id="highway.path" priority="1" numLanes="1" speed="2.78" allow="bicycle pedestrian" oneway="1" width="2.00"/>
    <type id="highway.pedestrian" priority="1" numLanes="1" speed="2.78" allow="pedestrian" oneway="1" width="2.00"/>
    <type id="highway.primary" priority="12" numLanes="2" speed="27.78" disallow="tram rail_urban rail rail_electric ship" oneway="0"/>
    <type id="highway.primary_link" priority="7" numLanes="1" speed="22.22" disallow="tram rail_urban rail rail_electric ship" oneway="0"/>
    <type id="highway.raceway" priority="15" numLanes="2" speed="83.33" allow="vip" oneway="0"/>
    <type id="highway.residential" priority="3" numLanes="1" speed="13.89" disallow="tram rail_urban rail rail_electric ship" oneway="0"/>
    <type id="highway.secondary" priority="11" numLanes="1" speed="27.78" disallow="tram rail_urban rail rail_electric ship" oneway="0"/>
    <type id="highway.secondary_link" priority="6" numLanes="1" speed="22.22" disallow="tram rail_urban rail rail_electric ship" oneway="0"/>
    <type id="highway.service" priority="1" numLanes="1" speed="5.56" allow="delivery bicycle pedestrian" oneway="0"/>
    <type id="highway.stairs" priority="1" numLanes="1" speed="1.39" allow="pedestrian" oneway="1" width="2.00"/>
    <type id="highway.step" priority="1" numLanes="1" speed="1.39" allow="pedestrian" oneway="1" width="2.00"/>
    <type id="highway.steps" priority="1" numLanes="1" speed="1.39" allow="pedestrian" oneway="1" width="2.00"/>
    <type id="highway.tertiary" priority="10" numLanes="1" speed="22.22" disallow="tram rail_urban rail rail_electric ship" oneway="0"/>
    <type id="highway.tertiary_link" priority="5" numLanes="1" speed="22.22" disallow="tram rail_urban rail rail_electric ship" oneway="0"/>
    <type id="highway.track" priority="1" numLanes="1" speed="5.56" disallow="tram rail_urban rail rail_electric ship" oneway="0"/>
    <type id="highway.trunk" priority="13" numLanes="2" speed="27.78" disallow="tram rail_urban rail rail_electric bicycle pedestrian ship" oneway="0"/>
    <type id="highway.trunk_link" priority="8" numLanes="1" speed="22.22" disallow="tram rail_urban rail rail_electric bicycle pedestrian ship" oneway="0"/>
    <type id="highway.unclassified" priority="4" numLanes="1" speed="13.89" disallow="tram rail_urban rail rail_electric ship" oneway="0"/>
    <type id="highway.unsurfaced" priority="1" numLanes="1" speed="8.33" disallow="tram rail_urban rail rail_electric ship" oneway="0"/>
    <type id="railway.highspeed" priority="21" numLanes="1" speed="69.44" allow="rail_electric" oneway="1"/>
    <type id="railway.light_rail" priority="19" numLanes="1" speed="27.78" allow="rail_urban" oneway="1"/>
    <type id="railway.preserved" priority="16" numLanes="1" speed="27.78" allow="rail" oneway="1"/>
    <type id="railway.rail" priority="20" numLanes="1" speed="44.44" allow="rail" oneway="1"/>
    <type id="railway.subway" priority="18" numLanes="1" speed="27.78" allow="rail_urban" oneway="1"/>
    <type id="railway.tram" priority="17" numLanes="1" speed="13.89" allow="tram" oneway="1"/>

    <edge id=":1553878346_0" function="internal">
        <lane id=":1553878346_0_0" index="0" disallow="tram rail_urban rail rail_electric ship" speed="16.67" length="25.68" shape="4055.04,4731.67 4029.44,4732.52"/>
        <lane id=":1553878346_0_1" index="1" disallow="tram rail_urban rail rail_electric ship" speed="16.67" length="25.68" shape="4054.96,4728.48 4029.31,4729.32"/>
        <lane id=":1553878346_0_2" index="2" disallow="tram rail_urban rail rail_electric ship" speed="16.67" length="25.68" shape="4054.88,4725.28 4029.19,4726.12"/>
        <lane id=":1553878346_0_3" index="3" disallow="tram rail_urban rail rail_electric ship" speed="16.67" length="25.68" shape="4054.79,4722.08 4029.06,4722.93"/>
    </edge>
    <edge id=":1553878346_4" function="internal">
        <lane id=":1553878346_4_0" index="0" disallow="tram rail_urban rail rail_electric ship" speed="27.78" length="16.27" shape="4054.14,4719.83 4055.58,4734.96"/>
        <lane id=":1553878346_4_1" index="1" disallow="tram rail_urban rail rail_electric ship" speed="27.78" length="16.27" shape="4050.95,4719.99 4052.41,4735.37"/>
        <lane id=":1553878346_4_2" index="2" disallow="tram rail_urban rail rail_electric ship" speed="27.78" length="16.27" shape="4047.75,4720.14 4049.23,4735.77"/>
        <lane id=":1553878346_4_3" index="3" disallow="tram rail_urban rail rail_electric ship" speed="27.78" length="16.27" shape="4044.56,4720.30 4046.06,4736.18"/>
        <lane id=":1553878346_4_4" index="4" disallow="tram rail_urban rail rail_electric ship" speed="27.78" length="16.27" shape="4041.36,4720.45 4042.89,4736.59"/>
        <lane id=":1553878346_4_5" index="5" disallow="tram rail_urban rail rail_electric ship" speed="27.78" length="16.27" shape="4038.16,4720.61 4039.71,4737.00"/>
        <lane id=":1553878346_4_6" index="6" disallow="tram rail_urban rail rail_electric ship" speed="27.78" length="16.27" shape="4038.16,4720.61 4037.93,4725.61 4037.10,4729.03 4036.40,4732.43 4036.54,4737.40"/>
        <lane id=":1553878346_4_7" index="7" disallow="tram rail_urban rail rail_electric ship" speed="27.78" length="16.27" shape="4038.16,4720.61 4037.44,4725.81 4035.50,4729.23 4033.70,4732.64 4033.36,4737.81"/>
    </edge>
    <edge id=":1553878346_12" function="internal">
        <lane id=":1553878346_12_0" index="0" disallow="tram rail_urban rail rail_electric ship" speed="6.47" length="8.99" shape="4034.97,4720.76 4034.70,4723.02 4033.65,4724.67 4031.81,4725.70 4029.19,4726.12"/>
    </edge>
    <edge id=":1553878346_13" function="internal">
        <lane id=":1553878346_13_0" index="0" disallow="tram rail_urban rail rail_electric ship" speed="4.50" length="3.81" shape="4031.77,4720.92 4031.64,4721.76 4031.14,4722.37 4030.28,4722.76 4029.06,4722.93"/>
    </edge>
    <edge id=":1553878405_0" function="internal">
        <lane id=":1553878405_0_0" index="0" disallow="tram rail_urban rail rail_electric ship" speed="25.00" length="12.42" shape="4075.25,5242.27 4075.18,5246.12 4074.96,5248.91 4074.58,5251.47 4074.07,5254.61"/>
    </edge>
    <edge id=":1553878405_1" function="internal">
        <lane id=":1553878405_1_0" index="0" disallow="tram rail_urban rail rail_electric ship" speed="27.78" length="10.18" shape="4072.05,5242.28 4072.12,5254.30"/>
        <lane id=":1553878405_1_1" index="1" disallow="tram rail_urban rail rail_electric ship" speed="27.78" length="10.18" shape="4068.85,5242.29 4068.92,5253.78"/>
        <lane id=":1553878405_1_2" index="2" disallow="tram rail_urban rail rail_electric ship" speed="27.78" length="10.18" shape="4065.65,5242.30 4065.72,5253.27"/>
        <lane id=":1553878405_1_3" index="3" disallow="tram rail_urban rail rail_electric ship" speed="27.78" length="10.18" shape="4062.45,5242.31 4062.51,5252.76"/>
        <lane id=":1553878405_1_4" index="4" disallow="tram rail_urban rail rail_electric ship" speed="27.78" length="10.18" shape="4059.25,5242.32 4059.31,5252.24"/>
        <lane id=":1553878405_1_5" index="5" disallow="tram rail_urban rail rail_electric ship" speed="27.78" length="10.18" shape="4056.05,5242.33 4056.10,5251.73"/>
        <lane id=":1553878405_1_6" index="6" disallow="tram rail_urban rail rail_electric ship" speed="27.78" length="10.18" shape="4052.85,5242.34 4052.90,5251.22"/>
        <lane id=":1553878405_1_7" index="7" disallow="tram rail_urban rail rail_electric ship" speed="27.78" length="10.18" shape="4049.65,5242.35 4049.69,5250.70"/>
    </edge>
    <edge id=":1912579073_0" function="internal">
        <lane id=":1912579073_0_0" index="0" disallow="tram rail_urban rail rail_electric ship" speed="13.89" length="14.15" shape="3840.79,4943.77 3838.92,4957.80"/>
    </edge>
    <edge id=":1912579073_1" function="internal">
        <lane id=":1912579073_1_0" index="0" allow="delivery bicycle pedestrian" speed="9.72" length="5.39" shape="3840.79,4943.77 3839.54,4947.20 3838.53,4948.61"/>
    </edge>
    <edge id=":1912579073_2" function="internal">
        <lane id=":1912579073_2_0" index="0" disallow="tram rail_urban rail rail_electric ship" speed="3.65" length="2.34" shape="3840.79,4943.77 3839.79,4944.81 3838.94,4945.07"/>
    </edge>
    <edge id=":1912579073_9" function="internal">
        <lane id=":1912579073_9_0" index="0" allow="delivery bicycle pedestrian" speed="9.72" length="9.61" shape="3838.53,4948.61 3837.39,4950.22 3834.78,4953.02 3832.15,4955.78"/>
    </edge>
    <edge id=":1912579073_10" function="internal">
        <lane id=":1912579073_10_0" index="0" disallow="tram rail_urban rail rail_electric ship" speed="3.65" length="2.34" shape="3838.94,4945.07 3838.22,4944.54 3837.64,4943.22"/>
    </edge>
    <edge id=":1912579073_3" function="internal">
        <lane id=":1912579073_3_0" index="0" disallow="tram rail_urban rail rail_electric ship" speed="9.72" length="13.31" shape="3829.76,4953.66 3832.27,4951.14 3834.62,4948.88 3836.51,4946.40 3837.64,4943.22"/>
    </edge>
    <edge id=":1912579073_4" function="internal">
        <lane id=":1912579073_4_0" index="0" disallow="tram rail_urban rail rail_electric ship" speed="7.20" length="19.64" shape="3829.76,4953.66 3834.56,4949.14 3837.68,4948.33 3839.14,4951.21 3838.92,4957.80"/>
    </edge>
    <edge id=":1912579073_5" function="internal">
        <lane id=":1912579073_5_0" index="0" allow="delivery bicycle pedestrian" speed="3.65" length="4.67" shape="3829.76,4953.66 3831.15,4953.29 3832.02,4953.52 3832.35,4954.35 3832.15,4955.78"/>
    </edge>
    <edge id=":1912579073_6" function="internal">
        <lane id=":1912579073_6_0" index="0" allow="delivery bicycle pedestrian" speed="4.79" length="7.70" shape="3835.75,4957.40 3835.83,4954.82 3835.26,4953.69 3834.03,4954.01 3832.15,4955.78"/>
    </edge>
    <edge id=":1912579073_7" function="internal">
        <lane id=":1912579073_7_0" index="0" disallow="tram rail_urban rail rail_electric ship" speed="13.89" length="14.31" shape="3835.75,4957.40 3837.64,4943.22"/>
    </edge>
    <edge id=":1912579073_8" function="internal">
        <lane id=":1912579073_8_0" index="0" disallow="tram rail_urban rail rail_electric ship" speed="3.65" length="2.34" shape="3835.75,4957.40 3836.69,4956.31 3837.53,4956.01"/>
    </edge>
    <edge id=":1912579073_11" function="internal">
        <lane id=":1912579073_11_0" index="0" disallow="tram rail_urban rail rail_electric ship" speed="3.65" length="2.34" shape="3837.53,4956.01 3838.28,4956.51 3838.92,4957.80"/>
    </edge>
    <edge id=":1936511551_0" function="internal">
        <lane id=":1936511551_0_0" index="0" disallow="tram rail_urban rail rail_electric ship" speed="5.46" length="10.06" shape="4007.71,4548.66 4007.43,4545.39 4006.45,4543.95 4004.75,4544.36 4002.35,4546.60"/>
    </edge>
    <edge id=":1936511551_1" function="internal">
        <lane id=":1936511551_1_0" index="0" disallow="tram rail_urban rail rail_electric ship" speed="16.67" length="12.52" shape="4007.71,4548.66 4007.79,4535.97"/>
        <lane id=":1936511551_1_1" index="1" disallow="tram rail_urban rail rail_electric ship" speed="16.67" length="12.52" shape="4010.91,4548.72 4010.99,4536.08"/>
        <lane id=":1936511551_1_2" index="2" disallow="tram rail_urban rail rail_electric ship" speed="16.67" length="12.52" shape="4014.11,4548.78 4014.19,4536.19"/>
        <lane id=":1936511551_1_3" index="3" disallow="tram rail_urban rail rail_electric ship" speed="16.67" length="12.52" shape="4017.31,4548.84 4017.39,4536.30"/>
        <lane id=":1936511551_1_4" index="4" disallow="tram rail_urban rail rail_electric ship" speed="16.67" length="12.52" shape="4020.51,4548.90 4020.59,4536.41"/>
        <lane id=":1936511551_1_5" index="5" disallow="tram rail_urban rail rail_electric ship" speed="16.67" length="12.52" shape="4023.71,4548.95 4023.78,4536.52"/>
        <lane id=":1936511551_1_6" index="6" disallow="tram rail_urban rail rail_electric ship" speed="16.67" length="12.52" shape="4026.91,4549.01 4026.98,4536.63"/>
        <lane id=":1936511551_1_7" index="7" disallow="tram rail_urban rail rail_electric ship" speed="16.67" length="12.52" shape="4030.11,4549.07 4030.18,4536.74"/>
    </edge>
    <edge id=":1936511558_0" function="internal">
        <lane id=":1936511558_0_0" index="0" allow="delivery bicycle pedestrian" speed="5.56" length="4.75" shape="4063.36,4623.37 4061.98,4623.58 4061.07,4623.88 4060.19,4624.32 4058.91,4624.92"/>
    </edge>
    <edge id=":1936511558_1" function="internal">
        <lane id=":1936511558_1_0" index="0" allow="delivery bicycle pedestrian" speed="5.56" length="4.46" shape="4063.36,4623.37 4062.72,4623.24 4061.94,4622.75 4061.01,4621.90 4059.93,4620.68"/>
    </edge>
    <edge id=":1936511583_0" function="internal">
        <lane id=":1936511583_0_0" index="0" disallow="tram rail_urban rail rail_electric ship" speed="7.08" length="9.75" shape="3810.23,4706.32 3810.95,4709.03 3812.24,4710.96 3814.09,4712.12 3816.50,4712.49"/>
    </edge>
    <edge id=":1936511583_1" function="internal">
        <lane id=":1936511583_1_0" index="0" disallow="tram rail_urban rail rail_electric ship" speed="7.87" length="12.27" shape="3810.23,4706.32 3811.12,4710.43 3812.46,4713.36 3814.26,4715.12 3816.52,4715.69"/>
    </edge>
    <edge id=":1936511583_2" function="internal">
        <lane id=":1936511583_2_0" index="0" disallow="tram rail_urban rail rail_electric ship" speed="3.65" length="4.67" shape="3810.23,4706.32 3809.61,4707.61 3808.87,4708.12 3808.02,4707.84 3807.06,4706.76"/>
    </edge>
    <edge id=":1936511583_3" function="internal">
        <lane id=":1936511583_3_0" index="0" disallow="tram rail_urban rail rail_electric ship" speed="6.23" length="9.05" shape="3802.04,4712.56 3804.54,4712.19 3806.21,4711.10 3807.05,4709.29 3807.06,4706.76"/>
    </edge>
    <edge id=":1936511583_4" function="internal">
        <lane id=":1936511583_4_0" index="0" disallow="tram rail_urban rail rail_electric ship" speed="16.67" length="14.46" shape="3802.04,4712.56 3816.50,4712.49"/>
        <lane id=":1936511583_4_1" index="1" disallow="tram rail_urban rail rail_electric ship" speed="16.67" length="14.46" shape="3802.06,4715.76 3816.52,4715.69"/>
        <lane id=":1936511583_4_2" index="2" disallow="tram rail_urban rail rail_electric ship" speed="16.67" length="14.46" shape="3802.07,4718.96 3816.53,4718.89"/>
        <lane id=":1936511583_4_3" index="3" disallow="tram rail_urban rail rail_electric ship" speed="16.67" length="14.46" shape="3802.09,4722.16 3816.55,4722.09"/>
    </edge>
    <edge id=":1936511585_0" function="internal">
        <lane id=":1936511585_0_0" index="0" disallow="tram rail_urban rail rail_electric ship" speed="6.16" length="9.05" shape="3909.29,4706.24 3909.22,4708.79 3910.02,4710.60 3911.68,4711.69 3914.20,4712.04"/>
    </edge>
    <edge id=":1936511585_1" function="internal">
        <lane id=":1936511585_1_0" index="0" disallow="tram rail_urban rail rail_electric ship" speed="7.01" length="12.07" shape="3909.29,4706.24 3909.02,4710.19 3909.75,4713.00 3911.48,4714.69 3914.21,4715.24"/>
    </edge>
    <edge id=":1936511585_2" function="internal">
        <lane id=":1936511585_2_0" index="0" disallow="tram rail_urban rail rail_electric ship" speed="16.67" length="11.25" shape="3902.95,4712.09 3914.20,4712.04"/>
        <lane id=":1936511585_2_1" index="1" disallow="tram rail_urban rail rail_electric ship" speed="16.67" length="11.25" shape="3902.96,4715.29 3914.21,4715.24"/>
        <lane id=":1936511585_2_2" index="2" disallow="tram rail_urban rail rail_electric ship" speed="16.67" length="11.25" shape="3902.98,4718.49 3914.23,4718.44"/>
        <lane id=":1936511585_2_3" index="3" disallow="tram rail_urban rail rail_electric ship" speed="16.67" length="11.25" shape="3902.99,4721.69 3914.25,4721.64"/>
    </edge>
    <edge id=":1945254624_0" function="internal">
        <lane id=":1945254624_0_0" index="0" disallow="tram rail_urban rail rail_electric ship" speed="3.65" length="4.67" shape="4516.27,4250.40 4516.99,4249.15 4517.76,4248.70 4518.58,4249.04 4519.46,4250.18"/>
    </edge>
    <edge id=":1945254831_0" function="internal">
        <lane id=":1945254831_0_0" index="0" disallow="tram rail_urban rail rail_electric ship" speed="27.78" length="14.56" shape="4546.17,4668.75 4544.39,4654.29"/>
    </edge>
    <edge id=":1945254831_1" function="internal">
        <lane id=":1945254831_1_0" index="0" disallow="tram rail_urban rail rail_electric ship" speed="5.38" length="4.42" shape="4546.17,4668.75 4546.61,4665.53 4547.27,4664.55"/>
    </edge>
    <edge id=":1945254831_2" function="internal">
        <lane id=":1945254831_2_0" index="0" disallow="tram rail_urban rail rail_electric ship" speed="3.65" length="2.34" shape="4546.17,4668.75 4546.82,4667.46 4547.57,4666.96"/>
    </edge>
    <edge id=":1945254831_9" function="internal">
        <lane id=":1945254831_9_0" index="0" disallow="tram rail_urban rail rail_electric ship" speed="5.38" length="6.62" shape="4547.27,4664.55 4548.26,4663.09 4550.45,4662.21 4552.47,4663.68"/>
    </edge>
    <edge id=":1945254831_10" function="internal">
        <lane id=":1945254831_10_0" index="0" disallow="tram rail_urban rail rail_electric ship" speed="3.65" length="2.34" shape="4547.57,4666.96 4548.41,4667.26 4549.35,4668.35"/>
    </edge>
    <edge id=":1945254831_3" function="internal">
        <lane id=":1945254831_3_0" index="0" disallow="tram rail_urban rail rail_electric ship" speed="18.06" length="11.08" shape="4547.57,4653.91 4548.23,4656.93 4549.29,4659.04 4550.71,4661.04 4552.47,4663.68"/>
    </edge>
    <edge id=":1945254831_4" function="internal">
        <lane id=":1945254831_4_0" index="0" disallow="tram rail_urban rail rail_electric ship" speed="27.78" length="14.55" shape="4547.57,4653.91 4549.35,4668.35"/>
    </edge>
    <edge id=":1945254831_5" function="internal">
        <lane id=":1945254831_5_0" index="0" disallow="tram rail_urban rail rail_electric ship" speed="3.65" length="2.34" shape="4547.57,4653.91 4546.91,4655.20 4546.17,4655.69"/>
    </edge>
    <edge id=":1945254831_11" function="internal">
        <lane id=":1945254831_11_0" index="0" disallow="tram rail_urban rail rail_electric ship" speed="3.65" length="2.34" shape="4546.17,4655.69 4545.33,4655.39 4544.39,4654.29"/>
    </edge>
    <edge id=":1945254831_6" function="internal">
        <lane id=":1945254831_6_0" index="0" disallow="tram rail_urban rail rail_electric ship" speed="18.06" length="14.51" shape="4542.54,4668.61 4543.32,4665.00 4544.05,4661.47 4544.49,4657.93 4544.39,4654.29"/>
    </edge>
    <edge id=":1945254831_7" function="internal">
        <lane id=":1945254831_7_0" index="0" disallow="tram rail_urban rail rail_electric ship" speed="7.14" length="18.20" shape="4542.54,4668.61 4544.37,4662.19 4546.63,4659.23 4549.33,4659.72 4552.47,4663.68"/>
    </edge>
    <edge id=":1945254831_8" function="internal">
        <lane id=":1945254831_8_0" index="0" disallow="tram rail_urban rail rail_electric ship" speed="4.97" length="9.44" shape="4542.54,4668.61 4543.85,4666.48 4546.05,4665.68 4548.19,4666.29 4549.35,4668.35"/>
    </edge>
    <edge id=":1945254866_0" function="internal">
        <lane id=":1945254866_0_0" index="0" disallow="tram rail_urban rail rail_electric ship" speed="11.90" length="6.93" shape="3978.56,4711.73 3980.55,4711.56 3981.86,4711.07 3983.08,4710.26 3984.80,4709.11"/>
    </edge>
    <edge id=":1945254866_1" function="internal">
        <lane id=":1945254866_1_0" index="0" disallow="tram rail_urban rail rail_electric ship" speed="16.67" length="7.84" shape="3978.57,4714.93 3980.79,4714.61 3982.24,4713.91 3983.69,4713.19 3985.91,4712.79"/>
        <lane id=":1945254866_1_1" index="1" disallow="tram rail_urban rail rail_electric ship" speed="16.67" length="7.84" shape="3978.59,4718.13 3980.84,4717.81 3982.32,4717.11 3983.79,4716.39 3986.05,4715.99"/>
        <lane id=":1945254866_1_2" index="2" disallow="tram rail_urban rail rail_electric ship" speed="16.67" length="7.84" shape="3978.60,4721.33 3980.89,4721.01 3982.39,4720.31 3983.89,4719.59 3986.18,4719.19"/>
    </edge>
    <edge id=":1945254874_0" function="internal">
        <lane id=":1945254874_0_0" index="0" disallow="tram rail_urban rail rail_electric ship" speed="11.96" length="8.32" shape="4507.86,4700.59 4510.33,4700.93 4512.12,4701.57 4513.77,4701.80 4515.84,4700.89"/>
    </edge>
    <edge id=":1945254874_1" function="internal">
        <lane id=":1945254874_1_0" index="0" disallow="tram rail_urban rail rail_electric ship" speed="16.67" length="3.00" shape="4507.86,4700.59 4510.86,4700.53"/>
        <lane id=":1945254874_1_1" index="1" disallow="tram rail_urban rail rail_electric ship" speed="16.67" length="3.00" shape="4507.91,4703.79 4510.91,4703.73"/>
        <lane id=":1945254874_1_2" index="2" disallow="tram rail_urban rail rail_electric ship" speed="16.67" length="3.00" shape="4507.97,4706.99 4510.97,4706.93"/>
        <lane id=":1945254874_1_3" index="3" disallow="tram rail_urban rail rail_electric ship" speed="16.67" length="3.00" shape="4508.03,4710.19 4511.03,4710.13"/>
    </edge>
    <edge id=":1945254879_0" function="internal">
        <lane id=":1945254879_0_0" index="0" disallow="tram rail_urban rail rail_electric ship" speed="27.78" length="17.35" shape="4551.55,4711.27 4549.29,4694.07"/>
    </edge>
    <edge id=":1945254879_1" function="internal">
        <lane id=":1945254879_1_0" index="0" disallow="tram rail_urban rail rail_electric ship" speed="6.35" length="9.43" shape="4551.55,4711.27 4552.00,4710.43 4553.61,4709.83 4556.39,4709.44 4560.34,4709.29"/>
    </edge>
    <edge id=":1945254879_2" function="internal">
        <lane id=":1945254879_2_0" index="0" disallow="tram rail_urban rail rail_electric ship" speed="3.65" length="4.66" shape="4551.55,4711.27 4552.17,4709.97 4552.90,4709.46 4553.75,4709.74 4554.71,4710.81"/>
    </edge>
    <edge id=":1945254879_3" function="internal">
        <lane id=":1945254879_3_0" index="0" disallow="tram rail_urban rail rail_electric ship" speed="7.40" length="10.94" shape="4552.47,4693.68 4553.23,4696.33 4554.79,4698.22 4557.12,4699.34 4560.24,4699.69"/>
    </edge>
    <edge id=":1945254879_4" function="internal">
        <lane id=":1945254879_4_0" index="0" disallow="tram rail_urban rail rail_electric ship" speed="27.78" length="17.28" shape="4552.47,4693.68 4554.71,4710.81"/>
    </edge>
    <edge id=":1945254879_5" function="internal">
        <lane id=":1945254879_5_0" index="0" disallow="tram rail_urban rail rail_electric ship" speed="3.65" length="4.67" shape="4552.47,4693.68 4551.82,4694.97 4551.07,4695.46 4550.23,4695.16 4549.29,4694.07"/>
    </edge>
    <edge id=":1945254879_6" function="internal">
        <lane id=":1945254879_6_0" index="0" disallow="tram rail_urban rail rail_electric ship" speed="6.29" length="9.04" shape="4544.22,4699.91 4546.70,4699.51 4548.38,4698.40 4549.24,4696.59 4549.29,4694.07"/>
    </edge>
    <edge id=":1945254879_7" function="internal">
        <lane id=":1945254879_7_0" index="0" disallow="tram rail_urban rail rail_electric ship" speed="16.67" length="15.98" shape="4544.22,4699.91 4560.24,4699.69"/>
        <lane id=":1945254879_7_1" index="1" disallow="tram rail_urban rail rail_electric ship" speed="16.67" length="15.98" shape="4544.28,4703.11 4560.27,4702.89"/>
        <lane id=":1945254879_7_2" index="2" disallow="tram rail_urban rail rail_electric ship" speed="16.67" length="15.98" shape="4544.34,4706.31 4560.31,4706.09"/>
        <lane id=":1945254879_7_3" index="3" disallow="tram rail_urban rail rail_electric ship" speed="16.67" length="15.98" shape="4544.40,4709.51 4560.34,4709.29"/>
    </edge>
    <edge id=":1945254879_11" function="internal">
        <lane id=":1945254879_11_0" index="0" disallow="tram rail_urban rail rail_electric ship" speed="7.33" length="10.61" shape="4544.40,4709.51 4548.83,4709.52 4552.03,4709.74 4553.99,4710.17 4554.71,4710.81"/>
    </edge>
    <edge id=":1945254891_0" function="internal">
        <lane id=":1945254891_0_0" index="0" disallow="tram rail_urban rail rail_electric ship" speed="4.25" length="3.09" shape="4694.22,4700.13 4696.79,4698.41"/>
    </edge>
    <edge id=":1945254891_1" function="internal">
        <lane id=":1945254891_1_0" index="0" disallow="tram rail_urban rail rail_electric ship" speed="4.36" length="3.31" shape="4694.22,4700.13 4694.42,4700.78 4694.92,4701.25 4695.72,4701.52 4696.81,4701.61"/>
    </edge>
    <edge id=":1945254891_2" function="internal">
        <lane id=":1945254891_2_0" index="0" disallow="tram rail_urban rail rail_electric ship" speed="3.65" length="4.67" shape="4694.22,4700.13 4693.50,4701.38 4692.73,4701.84 4691.91,4701.49 4691.03,4700.35"/>
    </edge>
    <edge id=":1945254891_3" function="internal">
        <lane id=":1945254891_3_0" index="0" disallow="tram rail_urban rail rail_electric ship" speed="4.02" length="2.92" shape="4688.79,4698.48 4691.03,4700.35"/>
    </edge>
    <edge id=":1945254891_4" function="internal">
        <lane id=":1945254891_4_0" index="0" disallow="tram rail_urban rail rail_electric ship" speed="16.67" length="8.00" shape="4688.79,4698.48 4696.79,4698.41"/>
        <lane id=":1945254891_4_1" index="1" disallow="tram rail_urban rail rail_electric ship" speed="16.67" length="8.00" shape="4688.82,4701.68 4696.81,4701.61"/>
        <lane id=":1945254891_4_2" index="2" disallow="tram rail_urban rail rail_electric ship" speed="16.67" length="8.00" shape="4688.85,4704.88 4696.84,4704.81"/>
        <lane id=":1945254891_4_3" index="3" disallow="tram rail_urban rail rail_electric ship" speed="16.67" length="8.00" shape="4688.88,4708.08 4696.87,4708.01"/>
    </edge>
    <edge id=":1945254893_0" function="internal">
        <lane id=":1945254893_0_0" index="0" disallow="tram rail_urban rail rail_electric ship" speed="12.50" length="9.68" shape="4602.43,4697.49 4604.92,4698.46 4606.69,4698.98 4608.51,4699.19 4611.18,4699.21"/>
        <lane id=":1945254893_0_1" index="1" disallow="tram rail_urban rail rail_electric ship" speed="12.50" length="9.68" shape="4602.43,4697.49 4605.05,4699.04 4606.68,4700.66 4608.37,4701.92 4611.21,4702.41"/>
    </edge>
    <edge id=":1945254893_2" function="internal">
        <lane id=":1945254893_2_0" index="0" disallow="tram rail_urban rail rail_electric ship" speed="16.67" length="16.50" shape="4594.68,4699.36 4611.18,4699.21"/>
        <lane id=":1945254893_2_1" index="1" disallow="tram rail_urban rail rail_electric ship" speed="16.67" length="16.50" shape="4594.71,4702.56 4611.21,4702.41"/>
        <lane id=":1945254893_2_2" index="2" disallow="tram rail_urban rail rail_electric ship" speed="16.67" length="16.50" shape="4594.74,4705.76 4611.24,4705.61"/>
        <lane id=":1945254893_2_3" index="3" disallow="tram rail_urban rail rail_electric ship" speed="16.67" length="16.50" shape="4594.77,4708.96 4611.27,4708.81"/>
    </edge>
    <edge id=":1945254895_0" function="internal">
        <lane id=":1945254895_0_0" index="0" allow="rail_urban" speed="8.33" length="41.88" shape="4104.13,4718.55 4096.53,4716.30 4084.36,4711.65 4072.41,4706.51 4065.44,4702.77"/>
    </edge>
    <edge id=":1945254895_1" function="internal">
        <lane id=":1945254895_1_0" index="0" allow="bicycle" speed="8.33" length="25.46" width="1.00" shape="4065.77,4702.39 4074.22,4707.16 4080.94,4709.95 4085.92,4710.77 4089.16,4709.61"/>
    </edge>
    <edge id=":1945254895_2" function="internal">