<?xml version="1.0" encoding="UTF-8"?>

<!-- generated on 09/14/21 14:21:52 by Eclipse SUMO duarouter Version 1.7.0
<configuration xmlns:xsi="http://www.w3.org/2001/XMLSchema-instance" xsi:noNamespaceSchemaLocation="http://sumo.dlr.de/xsd/duarouterConfiguration.xsd">

    <input>
        <net-file value="C:\Users\gggla\Sumo\2021-09-14-14-21-47\osm.net.xml"/>
        <route-files value="C:\Users\gggla\Sumo\2021-09-14-14-21-47\osm.passenger.trips.xml"/>
    </input>

    <output>
        <output-file value="C:\Users\gggla\Sumo\2021-09-14-14-21-47\osm.passenger.trips.xml.tmp"/>
        <write-trips value="true"/>
    </output>

    <time>
        <begin value="0"/>
        <end value="3600"/>
    </time>

    <report>
        <no-warnings value="true"/>
        <ignore-errors value="true"/>
        <no-step-log value="true"/>
    </report>

</configuration>
-->

<routes xmlns:xsi="http://www.w3.org/2001/XMLSchema-instance" xsi:noNamespaceSchemaLocation="http://sumo.dlr.de/xsd/routes_file.xsd">
    <vType id="veh_passenger" vClass="passenger"/>
    <trip id="0" type="veh_passenger" depart="0.00" departLane="best" from="378331065#0" to="-183521126#0"/>
    <trip id="1" type="veh_passenger" depart="14.94" departLane="best" from="-416457251#1" to="-379555992"/>
    <trip id="2" type="veh_passenger" depart="29.88" departLane="best" departSpeed="max" from="379555992" to="37401829#8"/>
    <trip id="3" type="veh_passenger" depart="44.82" departLane="best" from="518705243#6" to="-37401829#5"/>
    <trip id="4" type="veh_passenger" depart="59.76" departLane="best" from="-954536931#0" to="-183521126#0"/>
    <trip id="5" type="veh_passenger" depart="74.70" departLane="best" from="-379556022#1" to="183895331#1"/>
    <trip id="6" type="veh_passenger" depart="89.64" departLane="best" from="-183895331#4" to="-379555986"/>
    <trip id="7" type="veh_passenger" depart="104.57" departLane="best" departSpeed="max" from="378331066" to="183895338#5"/>
    <trip id="8" type="veh_passenger" depart="119.51" departLane="best" from="-379556023#0" to="26269734"/>
    <trip id="9" type="veh_passenger" depart="134.45" departLane="best" from="393642755#0" to="-172670186"/>
    <trip id="10" type="veh_passenger" depart="149.39" departLane="best" from="518705249#7" to="-416457253"/>
    <trip id="11" type="veh_passenger" depart="164.33" departLane="best" from="416457251#1" to="337111080#0"/>
    <trip id="12" type="veh_passenger" depart="179.27" departLane="best" from="-518705249#7" to="183895339#2"/>
    <trip id="13" type="veh_passenger" depart="194.21" departLane="best" from="416456944" to="337111081#1"/>
    <trip id="14" type="veh_passenger" depart="209.15" departLane="best" from="518705243#1" to="183895344#6"/>
    <trip id="15" type="veh_passenger" depart="224.09" departLane="best" from="-37401829#3" to="-379555993"/>
    <trip id="16" type="veh_passenger" depart="239.03" departLane="best" departSpeed="max" from="-37401829#8" to="-393310531#0"/>
    <trip id="17" type="veh_passenger" depart="253.97" departLane="best" from="378331064" to="-518705243#4"/>
    <trip id="18" type="veh_passenger" depart="268.91" departLane="best" from="-518705249#5" to="-379555989#0"/>
    <trip id="19" type="veh_passenger" depart="283.85" departLane="best" from="-416456956#2" to="518705249#4"/>
    <trip id="20" type="veh_passenger" depart="298.78" departLane="best" departSpeed="max" from="-378331065#2" to="-518705243#6"/>
    <trip id="21" type="veh_passenger" depart="313.72" departLane="best" from="416456956#3" to="379555996"/>
    <trip id="22" type="veh_passenger" depart="328.66" departLane="best" from="-393642751#0" to="-183521126#0"/>
    <trip id="23" type="veh_passenger" depart="343.60" departLane="best" from="-518705243#5" to="-392752139"/>
    <trip id="24" type="veh_passenger" depart="358.54" departLane="best" from="-379556014#1" to="518705249#5"/>
    <trip id="25" type="veh_passenger" depart="373.48" departLane="best" from="337111081#1" to="-392752139"/>
    <trip id="26" type="veh_passenger" depart="388.42" departLane="best" from="37401829#1" to="518705243#7"/>
    <trip id="27" type="veh_passenger" depart="403.36" departLane="best" from="-702362024#0" to="-379555992"/>
    <trip id="28" type="veh_passenger" depart="418.30" departLane="best" departSpeed="max" from="-37401829#8" to="37396910#1"/>
    <trip id="29" type="veh_passenger" depart="433.24" departLane="best" departSpeed="max" from="393310531#0" to="-518705249#5"/>
    <trip id="30" type="veh_passenger" depart="448.18" departLane="best" from="954536931#0" to="183895334"/>
    <trip id="31" type="veh_passenger" depart="463.12" departLane="best" from="702362023#4" to="518705243#1"/>
    <trip id="32" type="veh_passenger" depart="478.06" departLane="best" from="378331080#0" to="183895338#2"/>
    <trip id="33" type="veh_passenger" depart="492.99" departLane="best" from="-416456956#2" to="37401829#1"/>
    <trip id="34" type="veh_passenger" depart="507.93" departLane="best" departSpeed="max" from="-37401829#8" to="-518705249#6"/>
    <trip id="35" type="veh_passenger" depart="522.87" departLane="best" departSpeed="max" from="183521126#0" to="518705249#6"/>
    <trip id="36" type="veh_passenger" depart="537.81" departLane="best" from="518705243#4" to="-392752139"/>
    <trip id="37" type="veh_passenger" depart="552.75" departLane="best" from="183895338#1" to="-379555977#0"/>
    <trip id="38" type="veh_passenger" depart="567.69" departLane="best" from="518705248#1" to="518705243#3"/>
    <trip id="39" type="veh_passenger" depart="582.63" departLane="best" from="-518705243#3" to="37401829#1"/>
    <trip id="40" type="veh_passenger" depart="597.57" departLane="best" from="379556021#0" to="183895338#3"/>
    <trip id="41" type="veh_passenger" depart="612.51" departLane="best" from="-172672023#0" to="-416456956#2"/>
    <trip id="42" type="veh_passenger" depart="627.45" departLane="best" from="518705243#5" to="416456955#2"/>
    <trip id="43" type="veh_passenger" depart="642.39" departLane="best" from="-518705243#4" to="-183895331#8"/>
    <trip id="44" type="veh_passenger" depart="657.33" departLane="best" from="518705243#4" to="518705249#5"/>
    <trip id="45" type="veh_passenger" depart="672.27" departLane="best" from="-37401829#5" to="172672023#0"/>
    <trip id="46" type="veh_passenger" depart="687.21" departLane="best" from="379556021#2" to="-378331065#0"/>
    <trip id="47" type="veh_passenger" depart="702.14" departLane="best" from="-416456956#1" to="518705243#4"/>
    <trip id="48" type="veh_passenger" depart="717.08" departLane="best" from="-954536931#1" to="-379555989#0"/>
    <trip id="49" type="veh_passenger" depart="732.02" departLane="best" from="183895344#5" to="378331065#2"/>
    <trip id="50" type="veh_passenger" depart="746.96" departLane="best" from="-379555977#2" to="-394382781#1"/>
    <trip id="51" type="veh_passenger" depart="761.90" departLane="best" from="954536930" to="37401829#5"/>
    <trip id="52" type="veh_passenger" depart="776.84" departLane="best" from="-378331042#0" to="-379555992"/>
    <trip id="53" type="veh_passenger" depart="791.78" departLane="best" from="-518705249#1" to="26269734"/>
    <trip id="54" type="veh_passenger" depart="806.72" departLane="best" from="-393642751#1" to="-379555992"/>
    <trip id="55" type="veh_passenger" depart="821.66" departLane="best" from="518705243#1" to="-337111081#1"/>
    <trip id="56" type="veh_passenger" depart="836.60" departLane="best" from="-393642755#1" to="37401829#8"/>
    <trip id="57" type="veh_passenger" depart="851.54" departLane="best" from="-379556021#2" to="-378331066"/>
    <trip id="58" type="veh_passenger" depart="866.48" departLane="best" from="183895331#2" to="379556021#0"/>
    <trip id="59" type="veh_passenger" depart="881.42" departLane="best" from="393642755#0" to="-379555977#3"/>
    <trip id="60" type="veh_passenger" depart="896.35" departLane="best" departSpeed="max" from="-37401829#8" to="-518705249#6"/>
    <trip id="61" type="veh_passenger" depart="911.29" departLane="best" from="379555989#1" to="37401829#8"/>
    <trip id="62" type="veh_passenger" depart="926.23" departLane="best" from="-954536931#0" to="-393310531#0"/>
    <trip id="63" type="veh_passenger" depart="941.17" departLane="best" from="-416456955#1" to="518705249#2"/>
    <trip id="64" type="veh_passenger" depart="956.11" departLane="best" from="172672023#2" to="518705243#1"/>
    <trip id="65" type="veh_passenger" depart="971.05" departLane="best" from="954536931#1" to="416456956#0"/>
    <trip id="66" type="veh_passenger" depart="985.99" departLane="best" from="416457253" to="-378331079#1"/>
    <trip id="67" type="veh_passenger" depart="1000.93" departLane="best" from="183895331#7" to="-379555989#0"/>
    <trip id="68" type="veh_passenger" depart="1015.87" departLane="best" from="-518705249#7" to="779467170#1"/>
    <trip id="69" type="veh_passenger" depart="1030.81" departLane="best" from="-416456956#1" to="379556014#2"/>
    <trip id="70" type="veh_passenger" depart="1045.75" departLane="best" departSpeed="max" from="183521126#0" to="-518705249#5"/>
    <trip id="71" type="veh_passenger" depart="1060.69" departLane="best" from="702362023#3" to="26269734"/>
    <trip id="72" type="veh_passenger" depart="1075.63" departLane="best" departSpeed="max" from="-332080691" to="26269734"/>
    <trip id="73" type="veh_passenger" depart="1090.56" departLane="best" from="183895338#2" to="518705243#0"/>
    <trip id="74" type="veh_passenger" depart="1105.50" departLane="best" departSpeed="max" from="-378331065#2" to="518705249#7"/>
    <trip id="75" type="veh_passenger" depart="1120.44" departLane="best" from="-37401829#3" to="-379555977#1"/>
    <trip id="76" type="veh_passenger" depart="1135.38" departLane="best" from="518705243#6" to="-379556021#0"/>
    <trip id="77" type="veh_passenger" depart="1150.32" departLane="best" from="37401829#6" to="337111082#0"/>
    <trip id="78" type="veh_passenger" depart="1165.26" departLane="best" from="-954536930" to="26269734"/>
    <trip id="79" type="veh_passenger" depart="1180.20" departLane="best" from="183895339#4" to="518705249#4"/>
    <trip id="80" type="veh_passenger" depart="1195.14" departLane="best" from="-379555989#1" to="378331064"/>
    <trip id="81" type="veh_passenger" depart="1210.08" departLane="best" from="-393642755#2" to="-518705249#1"/>
    <trip id="82" type="veh_passenger" depart="1225.02" departLane="best" from="378331078#0" to="-394282835"/>
    <trip id="83" type="veh_passenger" depart="1239.96" departLane="best" from="-337111082#0" to="-379555989#0"/>
    <trip id="84" type="veh_passenger" depart="1254.90" departLane="best" from="-416456956#1" to="518705249#3"/>
    <trip id="85" type="veh_passenger" depart="1269.84" departLane="best" from="416456955#1" to="378331050#3"/>
    <trip id="86" type="veh_passenger" depart="1284.77" departLane="best" from="378331067#0" to="-172670186"/>
    <trip id="87" type="veh_passenger" depart="1299.71" departLane="best" departSpeed="max" from="-37401829#8" to="183895339#3"/>
    <trip id="88" type="veh_passenger" depart="1314.65" departLane="best" from="-416457250" to="337111080#0"/>
    <trip id="89" type="veh_passenger" depart="1329.59" departLane="best" departSpeed="max" from="379555989#0" to="-379555986"/>
    <trip id="90" type="veh_passenger" depart="1344.53" departLane="best" from="416457249" to="-37401829#7"/>
    <trip id="91" type="veh_passenger" depart="1359.47" departLane="best" from="-954536931#1" to="-393310531#0"/>
    <trip id="92" type="veh_passenger" depart="1374.41" departLane="best" from="-172672023#1" to="379555977#3"/>
    <trip id="93" type="veh_passenger" depart="1389.35" departLane="best" departSpeed="max" from="379555993" to="183895339#2"/>
    <trip id="94" type="veh_passenger" depart="1404.29" departLane="best" from="-37401829#1" to="518705243#5"/>
    <trip id="95" type="veh_passenger" depart="1419.23" departLane="best" from="518705243#8" to="183895338#5"/>
    <trip id="96" type="veh_passenger" depart="1434.17" departLane="best" from="416456955#1" to="26269734"/>
    <trip id="97" type="veh_passenger" depart="1449.11" departLane="best" departSpeed="max" from="393310531#0" to="518705243#1"/>
    <trip id="98" type="veh_passenger" depart="1464.05" departLane="best" from="518705243#7" to="-379555989#0"/>
    <trip id="99" type="veh_passenger" depart="1478.98" departLane="best" from="-416456955#1" to="-378331046#2"/>
    <trip id="100" type="veh_passenger" depart="1493.92" departLane="best" departSpeed="max" from="392752139" to="518705243#5"/>
    <trip id="101" type="veh_passenger" depart="1508.86" departLane="best" from="-702362026" to="337111082#0"/>
    <trip id="102" type="veh_passenger" depart="1523.80" departLane="best" departSpeed="max" from="-378331065#2" to="518705249#3"/>
    <trip id="103" type="veh_passenger" depart="1538.74" departLane="best" from="518705243#1" to="702362024#1"/>
    <trip id="104" type="veh_passenger" depart="1553.68" departLane="best" from="393642755#1" to="518705243#5"/>
    <trip id="105" type="veh_passenger" depart="1568.62" departLane="best" from="393642751#0" to="518705243#1"/>
    <trip id="106" type="veh_passenger" depart="1583.56" departLane="best" departSpeed="max" from="393310531#0" to="-378331050#0"/>
    <trip id="107" type="veh_passenger" depart="1598.50" departLane="best" from="-379556023#0" to="416456944"/>
    <trip id="108" type="veh_passenger" depart="1613.44" departLane="best" from="183521126#1" to="-394282835"/>
    <trip id="109" type="veh_passenger" depart="1628.38" departLane="best" departSpeed="max" from="393310531#0" to="-379555992"/>
    <trip id="110" type="veh_passenger" depart="1643.32" departLane="best" from="-518705243#7" to="518705243#1"/>
    <trip id="111" type="veh_passenger" depart="1658.26" departLane="best" from="702362023#2" to="-393310531#0"/>
    <trip id="112" type="veh_passenger" depart="1673.20" departLane="best" from="378331065#1" to="-518705249#1"/>
    <trip id="113" type="veh_passenger" depart="1688.13" departLane="best" from="702362023#4" to="-379555977#0"/>
    <trip id="114" type="veh_passenger" depart="1703.07" departLane="best" departSpeed="max" from="-37401829#8" to="-518705249#6"/>
    <trip id="115" type="veh_passenger" depart="1718.01" departLane="best" from="379555989#1" to="-416456944"/>
    <trip id="116" type="veh_passenger" depart="1732.95" departLane="best" from="-518705249#7" to="183895344#6"/>
    <trip id="117" type="veh_passenger" depart="1747.89" departLane="best" departSpeed="max" from="-416456955#2" to="378331050#6"/>
    <trip id="118" type="veh_passenger" depart="1762.83" departLane="best" departSpeed="max" from="379555993" to="37401829#8"/>
    <trip id="119" type="veh_passenger" depart="1777.77" departLane="best" from="378331073#1" to="-416457250"/>
    <trip id="120" type="veh_passenger" depart="1792.71" departLane="best" departSpeed="max" from="379555989#0" to="-394282835"/>
    <trip id="121" type="veh_passenger" depart="1807.65" departLane="best" from="-702362024#1" to="-393642755#1"/>
    <trip id="122" type="veh_passenger" depart="1822.59" departLane="best" from="518705249#4" to="37401829#8"/>
    <trip id="123" type="veh_passenger" depart="1837.53" departLane="best" from="-518705243#3" to="183895339#0"/>
    <trip id="124" type="veh_passenger" depart="1852.47" departLane="best" departSpeed="max" from="172670186" to="26269734"/>
    <trip id="125" type="veh_passenger" depart="1867.41" departLane="best" from="378331067#0" to="-702362026"/>
    <trip id="126" type="veh_passenger" depart="1882.34" departLane="best" from="172672023#1" to="-379555989#0"/>
    <trip id="127" type="veh_passenger" depart="1897.28" departLane="best" from="183895331#2" to="518705243#8"/>
    <trip id="128" type="veh_passenger" depart="1912.22" departLane="best" departSpeed="max" from="393310531#0" to="-378331079#2"/>
    <trip id="129" type="veh_passenger" depart="1927.16" departLane="best" from="378331060#1" to="-416457253"/>
    <trip id="130" type="veh_passenger" depart="1942.10" departLane="best" departSpeed="max" from="394282835" to="378331078#0"/>
    <trip id="131" type="veh_passenger" depart="1957.04" departLane="best" from="378331078#1" to="-379555992"/>
    <trip id="132" type="veh_passenger" depart="1971.98" departLane="best" from="-379555977#1" to="-183521126#0"/>
    <trip id="133" type="veh_passenger" depart="1986.92" departLane="best" from="-416456944" to="-954536930"/>
    <trip id="134" type="veh_passenger" depart="2001.86" departLane="best" from="416457253" to="-337111082#0"/>
    <trip id="135" type="veh_passenger" depart="2016.80" departLane="best" from="-793763774#1" to="37396910#2"/>
    <trip id="136" type="veh_passenger" depart="2031.74" departLane="best" from="183895334" to="-379556014#1"/>
    <trip id="137" type="veh_passenger" depart="2046.68" departLane="best" from="378331068#0" to="-172670186"/>
    <trip id="138" type="veh_passenger" depart="2061.62" departLane="best" departSpeed="max" from="-37401829#8" to="-518705249#5"/>
    <trip id="139" type="veh_passenger" depart="2076.55" departLane="best" from="-416456955#1" to="416457251#1"/>
    <trip id="140" type="veh_passenger" depart="2091.49" departLane="best" departSpeed="max" from="183521126#0" to="393642751#0"/>
    <trip id="141" type="veh_passenger" depart="2106.43" departLane="best" from="37401829#6" to="518705249#6"/>
    <trip id="142" type="veh_passenger" depart="2121.37" departLane="best" from="518705243#6" to="337111080#4"/>
    <trip id="143" type="veh_passenger" depart="2136.31" departLane="best" departSpeed="max" from="379555989#0" to="183895331#1"/>
    <trip id="144" type="veh_passenger" depart="2151.25" departLane="best" from="416456955#0" to="183895339#0"/>
    <trip id="145" type="veh_passenger" depart="2166.19" departLane="best" from="-416456955#0" to="37401829#1"/>
    <trip id="146" type="veh_passenger" depart="2181.13" departLane="best" from="379556021#2" to="183895331#8"/>
    <trip id="147" type="veh_passenger" depart="2196.07" departLane="best" from="378331050#5" to="-393310531#0"/>
    <trip id="148" type="veh_passenger" depart="2211.01" departLane="best" from="-702362026" to="183895338#4"/>
    <trip id="149" type="veh_passenger" depart="2225.95" departLane="best" from="-954536929#1" to="-379555989#0"/>
    <trip id="150" type="veh_passenger" depart="2240.89" departLane="best" from="518705243#0" to="378331080#1"/>
    <trip id="151" type="veh_passenger" depart="2255.83" departLane="best" from="-518705249#7" to="-172670186"/>
    <trip id="152" type="veh_passenger" depart="2270.76" departLane="best" from="518705243#0" to="518705249#6"/>
    <trip id="153" type="veh_passenger" depart="2285.70" departLane="best" departSpeed="max" from="172670186" to="-183521126#0"/>
    <trip id="154" type="veh_passenger" depart="2300.64" departLane="best" from="-518705243#8" to="37401829#8"/>
    <trip id="155" type="veh_passenger" depart="2315.58" departLane="best" from="-702362025" to="-378331078#2"/>
    <trip id="156" type="veh_passenger" depart="2330.52" departLane="best" from="378331050#3" to="-183521126#0"/>
    <trip id="157" type="veh_passenger" depart="2345.46" departLane="best" from="-378331050#3" to="-702362025"/>
    <trip id="158" type="veh_passenger" depart="2360.40" departLane="best" departSpeed="max" from="-26269734" to="-518705243#6"/>
    <trip id="159" type="veh_passenger" depart="2375.34" departLane="best" from="-379556021#0" to="-416456956#3"/>
    <trip id="160" type="veh_passenger" depart="2390.28" departLane="best" departSpeed="max" from="-416456955#2" to="-37401829#3"/>
    <trip id="161" type="veh_passenger" depart="2405.22" departLane="best" from="954536931#1" to="-518705243#1"/>
    <trip id="162" type="veh_passenger" depart="2420.16" departLane="best" departSpeed="max" from="378331066" to="379556014#1"/>
    <trip id="163" type="veh_passenger" depart="2435.10" departLane="best" from="518705249#6" to="-379555986"/>
    <trip id="164" type="veh_passenger" depart="2450.04" departLane="best" from="-378331046#3" to="37401829#8"/>
    <trip id="165" type="veh_passenger" depart="2464.97" departLane="best" from="337111082#0" to="-379555992"/>
    <trip id="166" type="veh_passenger" depart="2479.91" departLane="best" departSpeed="max" from="379555993" to="-378331050#3"/>
    <trip id="167" type="veh_passenger" depart="2494.85" departLane="best" departSpeed="max" from="394282835" to="702362022#1"/>
    <trip id="168" type="veh_passenger" depart="2509.79" departLane="best" departSpeed="max" from="-37401829#8" to="-183521126#0"/>
    <trip id="169" type="veh_passenger" depart="2524.73" departLane="best" from="-518705243#5" to="37401829#8"/>
    <trip id="170" type="veh_passenger" depart="2539.67" departLane="best" departSpeed="max" from="379555977#0" to="37396910#1"/>
    <trip id="171" type="veh_passenger" depart="2554.61" departLane="best" departSpeed="max" from="-37401829#8" to="379555977#3"/>
    <trip id="172" type="veh_passenger" depart="2569.55" departLane="best" from="416457253" to="332080691"/>
    <trip id="173" type="veh_passenger" depart="2584.49" departLane="best" departSpeed="max" from="392752139" to="-518705243#1"/>
    <trip id="174" type="veh_passenger" depart="2599.43" departLane="best" departSpeed="max" from="172670186" to="-518705243#5"/>
    <trip id="175" type="veh_passenger" depart="2614.37" departLane="best" from="183895338#3" to="-518705243#0"/>
    <trip id="176" type="veh_passenger" depart="2629.31" departLane="best" departSpeed="max" from="-37401829#8" to="518705249#7"/>
    <trip id="177" type="veh_passenger" depart="2644.25" departLane="best" from="378331064" to="416456955#2"/>
    <trip id="178" type="veh_passenger" depart="2659.19" departLane="best" departSpeed="max" from="379555986" to="-518705249#6"/>
    <trip id="179" type="veh_passenger" depart="2674.12" departLane="best" departSpeed="max" from="379555992" to="702362022#1"/>
    <trip id="180" type="veh_passenger" depart="2689.06" departLane="best" from="-416456956#3" to="393642755#0"/>
    <trip id="181" type="veh_passenger" depart="2704.00" departLane="best" departSpeed="max" from="172670186" to="378331065#2"/>
    <trip id="182" type="veh_passenger" depart="2718.94" departLane="best" from="-416456956#3" to="518705243#0"/>
    <trip id="183" type="veh_passenger" depart="2733.88" departLane="best" from="416456955#0" to="-37401829#5"/>
    <trip id="184" type="veh_passenger" depart="2748.82" departLane="best" from="183895329#0" to="337111080#3"/>
    <trip id="185" type="veh_passenger" depart="2763.76" departLane="best" from="-518705249#7" to="-183521126#0"/>
    <trip id="186" type="veh_passenger" depart="2778.70" departLane="best" from="379555977#2" to="-393310531#0"/>
    <trip id="187" type="veh_passenger" depart="2793.64" departLane="best" from="-183521126#1" to="518705249#6"/>
    <trip id="188" type="veh_passenger" depart="2808.58" departLane="best" from="183895332#1" to="378331079#1"/>
    <trip id="189" type="veh_passenger" depart="2823.52" departLane="best" departSpeed="max" from="379555977#0" to="37401829#3"/>
    <trip id="190" type="veh_passenger" depart="2838.46" departLane="best" from="183895332#1" to="379556022#1"/>
    <trip id="191" type="veh_passenger" depart="2853.40" departLane="best" from="-37401829#7" to="-379555992"/>
    <trip id="192" type="veh_passenger" depart="2868.33" departLane="best" departSpeed="max" from="379555977#0" to="-394282835"/>
    <trip id="193" type="veh_passenger" depart="2883.27" departLane="best" from="37401829#1" to="-954536929#1"/>
    <trip id="194" type="veh_passenger" depart="2898.21" departLane="best" from="183895344#1" to="-518705249#5"/>
    <trip id="195" type="veh_passenger" depart="2913.15" departLane="best" from="379555977#3" to="-393310531#0"/>
    <trip id="196" type="veh_passenger" depart="2928.09" departLane="best" departSpeed="max" from="-416456955#2" to="-378331060#1"/>
    <trip id="197" type="veh_passenger" depart="2943.03" departLane="best" from="-378331078#1" to="-379555989#1"/>
    <trip id="198" type="veh_passenger" depart="2957.97" departLane="best" from="702362024#1" to="183895332#1"/>
    <trip id="199" type="veh_passenger" depart="2972.91" departLane="best" from="-518705243#0" to="-378331046#1"/>
    <trip id="200" type="veh_passenger" depart="2987.85" departLane="best" from="-378331080#0" to="-379555992"/>
    <trip id="201" type="veh_passenger" depart="3002.79" departLane="best" from="702362024#0" to="183895339#3"/>
    <trip id="202" type="veh_passenger" depart="3017.73" departLane="best" from="379555977#1" to="-378331065#0"/>
    <trip id="203" type="veh_passenger" depart="3032.67" departLane="best" from="518705243#3" to="172672023#3"/>
    <trip id="204" type="veh_passenger" depart="3047.61" departLane="best" from="518705243#4" to="183895344#5"/>
    <trip id="205" type="veh_passenger" depart="3062.54" departLane="best" from="183895331#0" to="-518705249#7"/>
    <trip id="206" type="veh_passenger" depart="3077.48" departLane="best" departSpeed="max" from="394282835" to="-518705249#1"/>
    <trip id="207" type="veh_passenger" depart="3092.42" departLane="best" from="-37401829#1" to="37396910#2"/>
    <trip id="208" type="veh_passenger" depart="3107.36" departLane="best" from="337111082#0" to="-394282835"/>
    <trip id="209" type="veh_passenger" depart="3122.30" departLane="best" from="379556021#2" to="337111080#1"/>
    <trip id="210" type="veh_passenger" depart="3137.24" departLane="best" departSpeed="max" from="393310531#0" to="-379555992"/>
    <trip id="211" type="veh_passenger" depart="3152.18" departLane="best" from="172672023#2" to="518705243#1"/>
    <trip id="212" type="veh_passenger" depart="3167.12" departLane="best" departSpeed="max" from="379555992" to="518705249#6"/>
    <trip id="213" type="veh_passenger" depart="3182.06" departLane="best" from="379555977#3" to="-702362023#3"/>
    <trip id="214" type="veh_passenger" depart="3197.00" departLane="best" departSpeed="max" from="379555977#0" to="518705249#2"/>
    <trip id="215" type="veh_passenger" depart="3211.94" departLane="best" departSpeed="max" from="393310531#0" to="37396910#0"/>
    <trip id="216" type="veh_passenger" depart="3226.88" departLane="best" from="-954536932" to="183895338#5"/>
    <trip id="217" type="veh_passenger" depart="3241.82" departLane="best" departSpeed="max" from="378331066" to="518705248#0"/>
    <trip id="218" type="veh_passenger" depart="3256.75" departLane="best" departSpeed="max" from="379555993" to="183895344#3"/>
    <trip id="219" type="veh_passenger" depart="3271.69" departLane="best" from="-518705243#0" to="-378331064"/>
    <trip id="220" type="veh_passenger" depart="3286.63" departLane="best" departSpeed="max" from="379555977#0" to="378331050#2"/>
    <trip id="221" type="veh_passenger" depart="3301.57" departLane="best" from="518705249#5" to="183895330"/>
    <trip id="222" type="veh_passenger" depart="3316.51" departLane="best" from="-183895343" to="-518705249#6"/>
    <trip id="223" type="veh_passenger" depart="3331.45" departLane="best" from="-518705243#6" to="-379556022#0"/>
    <trip id="224" type="veh_passenger" depart="3346.39" departLane="best" from="-37401829#6" to="702362021"/>
    <trip id="225" type="veh_passenger" depart="3361.33" departLane="best" from="416456956#0" to="183895344#5"/>
    <trip id="226" type="veh_passenger" depart="3376.27" departLane="best" from="518705249#0" to="-379555977#0"/>
    <trip id="227" type="veh_passenger" depart="3391.21" departLane="best" from="-518705249#2" to="-416457252"/>
    <trip id="228" type="veh_passenger" depart="3406.15" departLane="best" from="378331078#0" to="518705243#0"/>
    <trip id="229" type="veh_passenger" depart="3421.09" departLane="best" from="-518705243#0" to="518705249#5"/>
    <trip id="230" type="veh_passenger" depart="3436.03" departLane="best" departSpeed="max" from="183521126#0" to="-416456955#0"/>
    <trip id="231" type="veh_passenger" depart="3450.96" departLane="best" from="-702362025" to="183895331#5"/>
    <trip id="232" type="veh_passenger" depart="3465.90" departLane="best" from="-378331078#2" to="-518705243#4"/>
    <trip id="233" type="veh_passenger" depart="3480.84" departLane="best" from="379556009" to="37396910#0"/>
    <trip id="234" type="veh_passenger" depart="3495.78" departLane="best" from="379556014#2" to="-379555986"/>
    <trip id="235" type="veh_passenger" depart="3510.72" departLane="best" from="-378331042#0" to="702362024#0"/>
    <trip id="236" type="veh_passenger" depart="3525.66" departLane="best" from="378331046#1" to="-379555993"/>
    <trip id="237" type="veh_passenger" depart="3540.60" departLane="best" from="337111080#2" to="-37401829#7"/>
    <trip id="238" type="veh_passenger" depart="3555.54" departLane="best" from="183521126#2" to="-378331050#5"/>
    <trip id="239" type="veh_passenger" depart="3570.48" departLane="best" from="416456955#0" to="183895329#0"/>
    <trip id="240" type="veh_passenger" depart="3585.42" departLane="best" departSpeed="max" from="379555989#0" to="183895331#2"/>
</routes>
