<?xml version="1.0" encoding="UTF-8"?>

<!-- generated on 09/14/21 14:21:51 by Eclipse SUMO polyconvert Version 1.7.0
<configuration xmlns:xsi="http://www.w3.org/2001/XMLSchema-instance" xsi:noNamespaceSchemaLocation="http://sumo.dlr.de/xsd/polyconvertConfiguration.xsd">

    <input>
        <net-file value="osm.net.xml"/>
        <osm-files value="osm_bbox.osm.xml"/>
        <osm.keep-full-type value="true"/>
        <type-file value="C:\Program%20Files%20(x86)\Eclipse\Sumo\data\typemap\osmPolyconvert.typ.xml"/>
    </input>

    <output>
        <output-file value="osm.poly.xml"/>
    </output>

    <processing>
        <poi-layer-offset value="5"/>
    </processing>

    <report>
        <verbose value="true"/>
    </report>

</configuration>
-->

<additional xmlns:xsi="http://www.w3.org/2001/XMLSchema-instance" xsi:noNamespaceSchemaLocation="http://sumo.dlr.de/xsd/additional_file.xsd">
    <location netOffset="-314481.54,-4156025.77" convBoundary="0.00,0.00,17047.82,9348.90" origBoundary="126.899294,37.534097,127.091107,37.619961" projParameter="+proj=utm +zone=52 +ellps=WGS84 +datum=WGS84 +units=m +no_defs"/>

    <poly id="26253960" type="amenity.university" color="237,199,199" fill="1" layer="-1.00" shape="11654.222024,6253.819190 11668.328571,6256.742605 11686.506282,6253.297493 11704.794677,6244.177487 11719.478688,6232.091422 11730.457683,6225.300535 11749.694175,6224.741832 11768.961609,6226.080795 11794.669218,6235.033323 11856.152122,6256.624123 11808.557491,6386.026678 11856.400948,6378.962985 11892.162272,6269.091033 11904.891513,6273.320307 11925.425382,6280.305706 11937.889700,6284.540578 11952.898772,6289.654664 12016.298229,6337.016262 12067.169739,6375.015913 12079.306731,6375.860935 12094.469667,6376.520551 12118.696330,6373.416061 12127.874020,6364.964941 12122.300785,6353.170181 12119.060266,6301.296504 12136.349660,6300.146665 12136.413245,6293.473649 12132.768855,6247.203315 12131.538115,6154.158501 12106.094911,6076.761907 12073.823411,6029.791696 11949.876492,5885.853032 11827.790634,5744.086116 11816.536258,5731.022930 11803.271053,5731.189867 11798.698897,5731.374480 11794.264304,5731.378598 11794.326193,5737.283027 11792.478396,5739.319926 11788.655429,5740.687753 11774.454243,5740.874351 11774.108308,5730.269053 11723.647673,5728.973317 11667.020531,5727.662885 11657.760840,5739.801744 11622.520480,5741.839677 11618.964726,5742.047474 11612.560208,5758.899930 11604.410812,5755.740583 11597.919817,5764.258012 11581.894717,5757.089936 11574.736036,5774.624309 11622.947439,5832.525920 11620.682077,5859.293558 11620.182637,5876.754815 11628.724389,5893.571278 11632.742056,5901.068991 11631.874303,5918.660084 11616.529777,5933.812906 11607.135252,6003.091561 11618.416995,6051.987948 11628.912275,6074.347232 11613.405088,6105.311331 11631.174565,6132.080526 11636.493648,6128.350019 11644.653614,6132.030904 11653.818196,6139.387361 11660.247808,6144.803008 11674.557020,6158.223745 11674.878627,6173.558591 11672.859352,6178.785110 11660.610295,6193.673143 11666.737699,6203.213606 11670.281306,6214.229191 11676.215999,6214.582067 11681.738117,6218.007478 11687.309564,6223.785271 11690.729574,6228.908821 11684.564280,6239.883799 11673.846572,6248.600845 11658.144169,6245.400065 11653.905140,6235.342656 11654.482802,6229.191681 11659.777306,6221.765065 11665.578409,6215.748756 11661.319596,6204.748173 11655.484815,6197.788111 11649.003235,6193.683478 11641.518467,6187.235379 11629.569919,6170.967722 11625.841343,6173.876698 11616.653502,6153.621385 11601.055237,6150.762649 11574.991521,6155.594526 11553.570430,6166.134883 11556.703127,6171.453131 11540.957899,6185.582148 11531.528586,6173.191507 11516.878530,6178.472275 11460.848985,6189.917051 11445.030578,6197.187365 11408.457391,6219.369373 11383.360963,6215.988993 11368.043282,6184.439739 11370.231568,6166.243581 11369.338786,6155.283420 11357.448542,6150.648778 11352.015103,6108.989761 11383.361242,5991.870344 11411.566737,5969.542097 11436.326307,5945.909791 11452.068493,5925.730605 11457.537632,5915.680357 11460.409447,5898.468986 11471.359636,5843.166937 11470.300500,5799.451171 11464.800841,5766.396802 11465.205499,5750.746976 11402.978431,5699.423720 11403.506553,5686.713063 11415.559113,5686.848483 11420.458193,5673.624200 11443.207105,5671.992008 11443.128380,5668.663356 11429.967233,5662.012675 11456.353264,5615.655873 11475.492319,5612.911759 11476.607629,5432.474737 11476.696697,5419.462487 11470.258824,5419.997263 11455.370250,5413.138564 11449.921549,5407.769055 11448.045777,5394.587133 11424.264747,5395.486071 11419.531640,5371.185432 11405.625158,5326.118713 11404.354357,5315.666044 11406.025435,5311.523579 11416.953076,5298.450249 11420.259457,5298.558440 11418.551213,5294.620147 11417.094999,5293.007774 11399.018167,5308.506938 11380.695700,5291.274418 11365.812034,5274.569161 11325.390665,5271.888125 11291.432482,5253.896382 11280.474636,5209.189714 11261.767125,5185.848861 11238.610240,5194.195068 11214.376130,5224.421902 11217.058899,5261.265311 11215.509289,5290.093944 11184.834006,5316.482130 11148.556082,5320.941617 11120.268608,5321.392237 11100.211498,5326.720787 11084.957668,5384.411833 11061.020777,5414.854955 11030.759280,5548.593247 11031.711838,5593.854358 11088.104753,5623.017954 11094.297651,5688.528117 11120.611069,5703.482703 11169.455780,5731.251440 11179.924451,5792.597636 11196.742202,5845.007211 11231.062286,5909.304368 11232.483496,5932.364642 11216.592691,5985.783907 11205.645449,5999.124421 11172.455682,6014.187141 11159.351077,6053.049991 11112.695690,6113.299949 11105.598797,6126.570708 11105.860284,6138.998381 11111.235751,6153.072419 11110.115104,6167.405250 11117.585887,6178.204801 11069.948101,6199.699759 11053.000070,6226.732289 11047.435622,6257.821354 11050.911685,6307.136786 11051.525399,6329.159466 11052.342315,6358.737689 11057.239342,6405.059235 11072.216126,6434.639158 11123.431605,6508.937551 11189.163909,6576.325736 11191.004429,6592.017213 11251.112828,6631.027736 11275.735178,6627.879102 11294.964124,6611.456057 11304.926929,6587.457100 11316.321986,6536.619041 11334.775629,6486.232124 11353.380531,6461.108044 11377.407843,6450.634463 11400.329359,6452.695048 11425.499904,6449.124637 11441.076112,6437.496637 11463.694582,6391.474113 11480.805692,6376.372648 11497.797672,6374.106506 11513.751327,6359.828690 11522.595400,6327.094836 11533.278360,6316.313518 11558.459021,6290.896523 11577.057206,6272.134038 11599.795569,6257.447611 11636.354723,6250.164316 11654.222024,6253.819190"/>
    <poly id="26628700" type="amenity.library" color="237,199,199" fill="1" layer="-1.00" shape="11240.229422,5485.585120 11220.862993,5519.128796 11320.975606,5576.426340 11341.024228,5541.702971 11320.189992,5529.785251 11311.086257,5545.551266 11296.180438,5537.028065 11297.629372,5534.510988 11272.466807,5520.097799 11270.420972,5523.637619 11249.148295,5511.462859 11258.166920,5495.853976 11240.229422,5485.585120"/>
    <poly id="26628700#1" type="building.yes" color="255,230,230" fill="1" layer="-1.00" shape="11240.229422,5485.585120 11220.862993,5519.128796 11320.975606,5576.426340 11341.024228,5541.702971 11320.189992,5529.785251 11311.086257,5545.551266 11296.180438,5537.028065 11297.629372,5534.510988 11272.466807,5520.097799 11270.420972,5523.637619 11249.148295,5511.462859 11258.166920,5495.853976 11240.229422,5485.585120"/>
    <poly id="26628701" type="building.university" color="255,230,230" fill="1" layer="-1.00" shape="11326.732847,5505.658478 11326.193021,5508.977923 11326.113542,5512.343203 11326.483947,5515.676828 11327.303536,5518.945510 11328.544186,5522.072135 11329.619770,5524.069923 11330.870096,5525.975232 11332.285634,5527.754959 11333.857322,5529.398193 11335.576094,5530.894024 11337.424058,5532.231727 11339.383087,5533.389481 11341.435752,5534.378753 11343.581355,5535.166254 11345.775977,5535.764009 11348.028449,5536.171832 11350.302749,5536.357177 11352.581917,5536.353703 11354.856424,5536.128306 11357.091646,5535.715019 11359.287119,5535.091647 11361.425647,5534.280755 11363.471676,5533.271989 11365.416843,5532.087725 11367.252549,5530.739245 11368.952304,5529.227107 11370.507511,5527.562590 11371.909805,5525.768074 11373.141759,5523.855025 11374.194775,5521.834724 11375.060722,5519.740645 11375.739367,5517.561692 11376.205150,5515.342807 11376.532366,5511.994528 11376.408767,5508.633516 11375.826918,5505.326533 11374.814244,5502.117407 11373.381205,5499.083626 11371.546162,5496.258107 11369.354430,5493.695404 11366.842731,5491.461352 11364.046853,5489.577401 11361.029306,5488.075542 11357.834944,5486.988136 11354.517448,5486.347359 11351.147229,5486.140630 11347.786566,5486.388843 11344.479380,5487.079975 11341.296315,5488.212542 11338.298483,5489.751956 11335.529572,5491.675098 11333.041865,5493.947565 11330.887646,5496.534957 11329.092239,5499.381235 11327.698864,5502.441088 11326.732847,5505.658478"/>
    <poly id="26628702" type="building.university" color="255,230,230" fill="1" layer="-1.00" shape="11110.598961,5605.071686 11135.536304,5559.632336 11216.929648,5603.912344 11208.285136,5619.657734 11180.474650,5604.512327 11167.652745,5627.872108 11155.279406,5633.072287 11144.369047,5627.185082 11142.345489,5616.659456 11155.380636,5592.939915 11143.199983,5586.302352 11127.765974,5614.412877 11110.598961,5605.071686"/>
    <poly id="26628703" type="building.university" color="255,230,230" fill="1" layer="-1.00" shape="11042.067215,5568.326047 11053.942186,5547.417113 11056.490363,5548.862133 11062.546947,5538.188700 11113.201934,5566.707246 11102.825897,5584.964710 11067.601531,5565.124480 11060.036863,5578.438389 11042.067215,5568.326047"/>
    <poly id="26628704" type="building.university" color="255,230,230" fill="1" layer="-1.00" shape="11057.371275,5515.995615 11093.317196,5448.344455 11117.133490,5460.887170 11081.187444,5528.538224 11057.371275,5515.995615"/>
    <poly id="26628705" type="building.university" color="255,230,230" fill="1" layer="-1.00" shape="11127.622361,5464.785030 11150.026328,5424.039280 11114.627429,5404.746444 11123.834068,5388.001150 11202.102962,5430.659461 11193.066534,5447.101357 11170.045306,5434.552811 11147.470968,5475.601815 11127.622361,5464.785030"/>
    <poly id="26628706" type="building.university" color="255,230,230" fill="1" layer="-1.00" shape="11193.748763,5395.933471 11229.793092,5329.102414 11253.640643,5341.866890 11217.587126,5408.686929 11193.748763,5395.933471"/>
    <poly id="26628707" type="building.university" color="255,230,230" fill="1" layer="-1.00" shape="11331.962685,5277.733508 11327.200280,5286.536753 11363.477309,5306.000764 11369.767708,5309.376564 11375.151007,5299.428001 11362.355928,5292.569889 11366.667587,5284.597608 11361.092011,5281.606433 11358.506316,5286.367573 11347.381880,5280.395776 11345.025995,5284.741356 11331.962685,5277.733508"/>
    <poly id="26628710" type="building.university" color="255,230,230" fill="1" layer="-1.00" shape="11386.826746,5472.991364 11387.808688,5471.372195 11410.927833,5428.025663 11412.131223,5426.013312 11425.559780,5433.180116 11400.255487,5480.169222 11386.826746,5472.991364"/>
    <poly id="26628711" type="building.university" color="255,230,230" fill="1" layer="-1.00" shape="11374.005754,5486.337641 11380.547034,5475.165841 11396.564615,5484.465120 11390.023322,5495.636907 11374.005754,5486.337641"/>
    <poly id="26628712" type="building.university" color="255,230,230" fill="1" layer="-1.00" shape="11372.234962,5641.766889 11376.308525,5634.665480 11369.763892,5630.950896 11375.703699,5620.590991 11403.295339,5636.274474 11408.405191,5634.768434 11414.068322,5633.106464 11430.802868,5604.203244 11452.746615,5616.808393 11428.560705,5658.556491 11411.432204,5664.067054 11372.234962,5641.766889"/>
    <poly id="26628713" type="building.university" color="255,230,230" fill="1" layer="-1.00" shape="11126.072099,5701.036608 11133.163995,5686.667001 11164.530548,5680.623283 11168.849689,5672.606311 11143.706959,5659.969269 11149.004157,5649.311870 11192.676762,5673.093256 11175.910139,5704.206794 11140.317743,5707.997038 11126.072099,5701.036608"/>
    <poly id="26628713#1" type="sport.tennis" color="79,230,125" fill="1" layer="-2.00" shape="11126.072099,5701.036608 11133.163995,5686.667001 11164.530548,5680.623283 11168.849689,5672.606311 11143.706959,5659.969269 11149.004157,5649.311870 11192.676762,5673.093256 11175.910139,5704.206794 11140.317743,5707.997038 11126.072099,5701.036608"/>
    <poly id="352453975" type="leisure.park" color="207,245,201" fill="1" layer="-2.00" shape="11195.141732,5573.109928 11199.074834,5566.055784 11216.991910,5535.018043 11253.868214,5554.868575 11231.269921,5593.098197 11195.141732,5573.109928"/>
    <poly id="392752500" type="building.university" color="255,230,230" fill="1" layer="-1.00" shape="11385.466293,5540.713933 11407.572767,5554.325750 11438.745213,5573.508687 11441.804426,5568.582211 11446.440509,5571.437741 11453.097324,5560.718714 11450.134877,5558.893738 11451.963767,5555.957977 11405.584833,5527.392030 11403.491298,5530.766300 11394.917377,5525.495764 11385.466293,5540.713933"/>
    <poly id="393642753" type="amenity.parking" color="184,184,179" fill="1" layer="-1.00" shape="11628.835306,5460.829729 11632.089706,5458.041731 11614.321367,5433.914496 11590.641849,5450.174618 11596.705868,5458.350959 11616.566052,5444.901807 11628.835306,5460.829729"/>
    <poly id="394374373" type="building.university" color="255,230,230" fill="1" layer="-1.00" shape="11433.123814,5599.458780 11454.782460,5612.369649 11476.335876,5576.504937 11454.668348,5563.594196 11433.123814,5599.458780"/>
    <poly id="394377368" type="amenity.parking_space" color="237,199,199" fill="1" layer="-1.00" shape="11381.957399,5468.286893 11387.808688,5471.372195 11410.927833,5428.025663 11405.067461,5424.929433 11381.957399,5468.286893"/>
    <poly id="416466761" type="amenity.school" color="237,199,199" fill="1" layer="-1.00" shape="11621.323017,5274.079820 11756.119552,5277.004184 11759.544267,5170.618303 11620.906632,5164.499549 11621.323017,5274.079820"/>
    <poly id="435327107" type="leisure.pitch" color="207,245,201" fill="1" layer="-2.00" shape="11287.348660,5338.716277 11313.905322,5290.790231 11366.525081,5318.192269 11340.421093,5365.387062 11287.348660,5338.716277"/>
    <poly id="435327107#1" type="sport.multi" color="79,230,125" fill="1" layer="-2.00" shape="11287.348660,5338.716277 11313.905322,5290.790231 11366.525081,5318.192269 11340.421093,5365.387062 11287.348660,5338.716277"/>
    <poly id="435327778" type="building.university" color="255,230,230" fill="1" layer="-1.00" shape="11218.850372,5673.841764 11237.704695,5640.331021 11227.424858,5634.596971 11237.950471,5615.881387 11306.942974,5654.439461 11318.251028,5660.762556 11330.057054,5667.241718 11321.651933,5682.193781 11261.269851,5648.527786 11240.295106,5685.812992 11218.850372,5673.841764"/>
    <poly id="435327779" type="building.university" color="255,230,230" fill="1" layer="-1.00" shape="11253.444320,5695.671828 11259.556921,5695.643253 11259.576806,5700.371874 11312.019888,5700.135609 11312.001492,5696.317243 11315.817538,5696.303664 11315.776549,5685.103591 11283.720274,5685.233279 11283.682399,5675.864808 11260.247648,5675.968812 11260.286715,5685.392765 11253.396581,5685.415480 11253.444320,5695.671828"/>
    <poly id="448707045" type="building.university" color="255,230,230" fill="1" layer="-1.00" shape="11256.347028,5263.825328 11282.764580,5278.645075 11251.536732,5333.818463 11225.110221,5318.987907 11256.347028,5263.825328"/>
    <poly id="448707150" type="building.university" color="255,230,230" fill="1" layer="-1.00" shape="11171.288341,5363.846412 11187.558901,5372.129797 11173.945802,5398.636665 11157.675277,5390.353307 11171.288341,5363.846412"/>
    <poly id="448707896" type="building.yes" color="255,230,230" fill="1" layer="-1.00" shape="11460.357081,5502.974254 11470.404744,5508.591353 11465.984128,5516.421558 11473.645176,5520.712238 11468.279101,5530.216340 11433.487255,5510.742950 11436.954019,5504.609006 11438.580955,5505.518433 11440.216284,5502.620036 11455.672280,5511.265152 11460.357081,5502.974254"/>
    <poly id="448707897" type="building.yes" color="255,230,230" fill="1" layer="-1.00" shape="11440.248239,5435.136317 11460.230949,5435.527166 11459.389077,5477.484454 11454.908322,5477.400906 11454.715020,5487.129450 11439.213184,5486.822155 11440.248239,5435.136317"/>
    <poly id="448707898" type="building.yes" color="255,230,230" fill="1" layer="-1.00" shape="11411.641860,5512.511584 11421.027455,5517.309952 11416.842538,5525.423863 11407.465779,5520.625315 11411.641860,5512.511584"/>
    <poly id="448707899" type="building.university" color="255,230,230" fill="1" layer="-1.00" shape="11370.657188,5675.580435 11389.805771,5675.400250 11389.893244,5684.612258 11400.695157,5684.507500 11400.746188,5690.722999 11370.804567,5691.007758 11370.657188,5675.580435"/>
    <poly id="448707900" type="building.university" color="255,230,230" fill="1" layer="-1.00" shape="11473.489781,5545.293136 11465.877770,5558.907359 11418.620646,5532.690992 11426.232842,5519.087821 11473.489781,5545.293136"/>
    <poly id="468643496" type="building.university" color="255,230,230" fill="1" layer="-1.00" shape="11120.293600,5698.049871 11129.433671,5681.516877 11121.086339,5676.941220 11118.786177,5638.568910 11122.239391,5632.224183 11100.534797,5620.514034 11094.615124,5631.395481 11101.418462,5687.712243 11120.293600,5698.049871"/>
    <poly id="496284461" type="building.apartments" color="255,230,230" fill="1" layer="-1.00" shape="11436.144008,5327.176358 11461.543145,5317.917741 11444.940290,5305.999675 11429.433814,5312.219870 11436.144008,5327.176358"/>
    <poly id="529615074" type="building.apartments" color="255,230,230" fill="1" layer="-1.00" shape="11049.507689,5305.607665 11066.268450,5269.154436 11095.250477,5283.653225 11100.187468,5270.561162 11137.941397,5251.838913 11211.939110,5266.090873 11209.382758,5291.155223 11181.412080,5312.979548 11123.486494,5319.392974 11104.486986,5294.781984 11093.285920,5291.476377 11080.195263,5333.991209 11065.932201,5331.693649 11067.404991,5311.836210 11049.507689,5305.607665"/>
    <poly id="652299139" type="amenity.parking" color="184,184,179" fill="1" layer="-1.00" shape="11344.281964,5366.238442 11386.103431,5388.494530 11382.600022,5325.580957 11369.543826,5319.327775 11344.281964,5366.238442"/>
    <poly id="779506261" type="landuse.construction" color="194,194,130" fill="1" layer="-3.00" shape="11035.563347,5483.861872 11043.587032,5484.381284 11038.790328,5505.807328 11031.989979,5535.290498 11029.685858,5547.960876 11028.560419,5590.190732 11031.925239,5603.574382 11063.053925,5618.960314 11086.069748,5631.686278 11088.943270,5681.347385 11073.379082,5681.841380 11061.942474,5683.691683 11030.710371,5679.331283 11024.058493,5680.181752 11014.216650,5640.280820 11006.989344,5623.448344 10990.508082,5583.320856 10979.786112,5563.731198 10960.111945,5529.732150 10973.983566,5518.905213 10969.580710,5489.791048 11007.157035,5484.937068 11035.563347,5483.861872"/>
    <poly id="786081237" type="amenity.fountain" color="237,199,199" fill="1" layer="-1.00" shape="11390.080999,5562.319500 11384.575215,5565.165987 11383.095420,5568.738293 11383.212544,5572.632290 11384.225468,5576.274351 11383.359680,5580.899458 11384.966150,5585.461538 11389.508273,5586.787070 11391.947203,5585.137299 11396.387159,5576.129934 11417.532690,5586.476053 11422.667401,5576.055386 11395.184496,5562.611952 11390.080999,5562.319500"/>
    <poly id="786081238" type="leisure.park" color="207,245,201" fill="1" layer="-2.00" shape="11352.338303,5422.562283 11359.883880,5432.283688 11358.580149,5445.920920 11358.200997,5454.787496 11350.701313,5461.128302 11355.854090,5467.969298 11348.401642,5478.660714 11337.952431,5482.110623 11324.371828,5491.254553 11314.446487,5515.852034 11307.862839,5527.524330 11298.021003,5522.458149 11258.626876,5503.026672 11263.729893,5493.206021 11228.087215,5475.316584 11244.907357,5423.598572 11278.770773,5443.412655 11289.257458,5424.087424 11317.044150,5412.014013 11329.288723,5406.972221 11341.768535,5413.548272 11352.338303,5422.562283"/>
    <poly id="789139562" type="leisure.park" color="207,245,201" fill="1" layer="-2.00" shape="11091.116182,5527.230331 11127.284323,5546.995310 11134.670458,5534.007155 11150.242447,5505.727238 11153.442269,5499.931810 11157.356782,5492.833633 11120.308679,5472.820601 11091.116182,5527.230331"/>
    <poly id="791458051" type="leisure.park" color="207,245,201" fill="1" layer="-2.00" shape="11404.753286,5396.506337 11398.780151,5396.875995 11394.407838,5327.919516 11400.372192,5327.550042 11404.753286,5396.506337"/>
    <poly id="794703180" type="building.school" color="255,230,230" fill="1" layer="-1.00" shape="11636.957041,5242.757976 11628.852100,5242.583815 11629.905726,5192.562849 11649.323817,5192.966026 11648.681819,5223.440606 11652.235015,5223.521514 11652.027050,5233.405757 11648.473858,5233.324849 11648.270308,5242.998081 11641.013810,5242.839420 11640.857845,5250.147143 11754.794394,5252.554285 11754.543347,5264.604114 11723.944673,5263.957698 11723.837862,5268.977583 11714.937498,5268.786708 11715.044535,5263.777919 11636.550203,5262.115538 11636.801079,5250.065700 11636.957041,5242.757976"/>
    <poly id="794703181" type="building.school" color="255,230,230" fill="1" layer="-1.00" shape="11728.192313,5269.774392 11751.101565,5270.260038 11750.969660,5276.612565 11728.051827,5276.138202 11728.192313,5269.774392"/>
    <poly id="802862249" type="leisure.park" color="207,245,201" fill="1" layer="-2.00" shape="11448.045777,5394.587133 11449.921549,5407.769055 11450.339442,5422.624533 11432.439171,5428.428750 11430.262610,5427.009117 11411.559629,5414.779989 11424.264747,5395.486071 11448.045777,5394.587133"/>
    <poly id="802936056" type="leisure.park" color="207,245,201" fill="1" layer="-2.00" shape="11405.016285,5623.993910 11421.271799,5597.520752 11416.837017,5591.630432 11398.531207,5582.312576 11393.992989,5584.117444 11385.237299,5592.482787 11382.370374,5590.999961 11376.145083,5592.396233 11372.402900,5596.349092 11371.392973,5607.149394 11374.067963,5612.532706 11400.718629,5626.315472 11405.016285,5623.993910"/>
    <poly id="802936060" type="building.university" color="255,230,230" fill="1" layer="-1.00" shape="11173.039052,5644.554703 11196.498233,5657.371546 11212.394048,5628.529879 11188.925986,5615.713174 11173.039052,5644.554703"/>
    <poly id="803710534" type="building.university" color="255,230,230" fill="1" layer="-1.00" shape="11275.131329,5599.380830 11278.092076,5593.557174 11280.298177,5589.236915 11261.430984,5579.698029 11256.255321,5589.842142 11275.131329,5599.380830"/>
    <poly id="804525738" type="building.university" color="255,230,230" fill="1" layer="-1.00" shape="11144.821821,5532.783452 11155.280258,5514.235691 11185.352272,5531.043038 11174.902391,5549.579478 11144.821821,5532.783452"/>
    <poly id="804525740" type="leisure.park" color="207,245,201" fill="1" layer="-2.00" shape="11174.902391,5549.579478 11185.352272,5531.043038 11203.278587,5541.200999 11193.123781,5559.486988 11174.902391,5549.579478"/>
    <poly id="805888802" type="landuse.grass" color="194,194,130" fill="1" layer="-3.00" shape="11158.755882,5492.149249 11176.439203,5449.993108 11205.578072,5516.952407 11158.755882,5492.149249"/>
    <poly id="806701044" type="leisure.park" color="207,245,201" fill="1" layer="-2.00" shape="11219.488706,5671.008681 11236.494516,5640.756098 11228.153707,5636.069187 11219.033148,5652.701557 11219.488706,5671.008681"/>
    <poly id="807058735" type="landuse.grass" color="194,194,130" fill="1" layer="-3.00" shape="11214.046846,5527.719975 11221.318803,5514.756509 11326.172040,5573.153368 11318.908347,5586.094362 11214.046846,5527.719975"/>
    <poly id="807801802" type="natural.wood" color="140,196,107" fill="1" layer="-4.00" shape="11211.202613,5661.780316 11196.784087,5690.713040 11195.626700,5697.009461 11201.561816,5700.303784 11224.852554,5698.815009 11254.159964,5697.777082 11250.638016,5693.710429 11227.299441,5692.924425 11214.571937,5691.360335 11210.317128,5688.152785 11209.379876,5684.331533 11208.785252,5676.218079 11211.202613,5661.780316"/>
    <poly id="816246412" type="leisure.park" color="207,245,201" fill="1" layer="-2.00" shape="11367.735271,5696.711550 11369.588706,5653.312030 11418.711930,5674.182619 11413.642443,5686.022854 11402.846308,5685.561322 11402.298430,5698.172485 11367.735271,5696.711550"/>
    <poly id="818753449" type="amenity.parking" color="184,184,179" fill="1" layer="-1.00" shape="11061.431964,5591.419454 11070.236269,5574.882362 11103.334343,5592.336205 11094.529994,5608.873261 11061.431964,5591.419454"/>
    <poly id="818753458" type="leisure.fitness_station" color="207,245,201" fill="1" layer="-2.00" shape="11257.408091,5509.768409 11258.941591,5507.071932 11267.604363,5511.940829 11266.079692,5514.637119 11257.408091,5509.768409"/>
    <poly id="818753458#1" type="sport.fitness" color="79,230,125" fill="1" layer="-2.00" shape="11257.408091,5509.768409 11258.941591,5507.071932 11267.604363,5511.940829 11266.079692,5514.637119 11257.408091,5509.768409"/>
    <poly id="818753461" type="landuse.forest" color="140,196,107" fill="1" layer="-3.00" shape="11405.625158,5326.118713 11400.372192,5327.550042 11404.753286,5396.506337 11405.063999,5404.992087 11424.264747,5395.486071 11419.531640,5371.185432 11405.625158,5326.118713"/>
    <poly id="819103559" type="amenity.parking" color="184,184,179" fill="1" layer="-1.00" shape="11374.743083,5467.184002 11360.497880,5458.990938 11378.768763,5427.513227 11309.938583,5387.918679 11291.395305,5419.879617 11251.699733,5397.057569 11281.718230,5345.306489 11404.489244,5415.905351 11374.743083,5467.184002"/>
    <poly id="923278845" type="leisure.garden" color="207,245,201" fill="1" layer="-2.00" shape="11081.187444,5528.538224 11117.133490,5460.887170 11093.317196,5448.344455 11057.371275,5515.995615 11081.187444,5528.538224"/>
    <poi id="1934121799" type="shop.convenience" color="237,199,255" layer="4.00" x="11376.73" y="5684.76"/>
    <poi id="1934129056" type="amenity.pharmacy" color="237,199,199" layer="4.00" x="11436.72" y="5700.11"/>
    <poi id="1934129696" type="amenity.restaurant" color="237,199,199" layer="4.00" x="11456.14" y="5699.23"/>
    <poi id="1934133155" type="amenity.cafe" color="237,199,199" layer="4.00" x="11514.50" y="5680.08"/>
    <poi id="1934142053" type="amenity.restaurant" color="237,199,199" layer="4.00" x="11512.19" y="5601.01"/>
    <poi id="1934142055" type="amenity.fast_food" color="237,199,199" layer="4.00" x="11518.92" y="5506.80"/>
    <poi id="1934148894" type="shop.convenience" color="237,199,255" layer="4.00" x="11536.48" y="5519.17"/>
    <poi id="1934148899" type="amenity.restaurant" color="237,199,199" layer="4.00" x="11519.35" y="5527.31"/>
    <poi id="1934154398" type="amenity.cafe" color="237,199,199" layer="4.00" x="11535.27" y="5619.71"/>
    <poi id="1934165482" type="shop.convenience" color="237,199,255" layer="4.00" x="11568.93" y="5609.10"/>
    <poi id="1934170729" type="amenity.restaurant" color="237,199,199" layer="4.00" x="11617.97" y="5699.14"/>
    <poi id="1934173270" type="amenity.hospital" color="237,199,199" layer="4.00" x="11599.97" y="5596.01"/>
    <poi id="3277889160" type="amenity.atm" color="237,199,199" layer="4.00" x="11451.80" y="5595.54"/>
    <poi id="3391956093" type="amenity.cafe" color="237,199,199" layer="4.00" x="11636.29" y="5707.87"/>
    <poi id="3582450602" type="amenity.cafe" color="237,199,199" layer="4.00" x="11249.07" y="5563.28"/>
    <poi id="368739584" type="amenity.dentist" color="237,199,199" layer="4.00" x="11487.51" y="5391.03"/>
    <poi id="368876164" type="amenity.post_office" color="237,199,199" layer="4.00" x="11627.45" y="5405.34"/>
    <poi id="3957778062" type="shop.grocery" color="237,199,255" layer="4.00" x="11718.85" y="5305.39"/>
    <poi id="3957800349" type="amenity.bank" color="237,199,199" layer="4.00" x="11520.93" y="5361.50"/>
    <poi id="3957800350" type="shop.bakery" color="237,199,255" layer="4.00" x="11548.30" y="5355.73"/>
    <poi id="3957800351" type="shop.bakery" color="237,199,255" layer="4.00" x="11581.78" y="5339.12"/>
    <poi id="3958163933" type="shop.convenience" color="237,199,255" layer="4.00" x="11532.22" y="5680.82"/>
    <poi id="3958163934" type="shop.convenience" color="237,199,255" layer="4.00" x="11525.99" y="5428.53"/>
    <poi id="3958168999" type="amenity.bank" color="237,199,199" layer="4.00" x="11520.12" y="5544.47"/>
    <poi id="3958169011" type="amenity.bank" color="237,199,199" layer="4.00" x="11579.83" y="5301.15"/>
    <poi id="3958170274" type="tourism.hostel" color="207,245,201" layer="3.00" x="11521.71" y="5631.24"/>
    <poi id="3958170275" type="amenity.restaurant" color="237,199,199" layer="4.00" x="11533.30" y="5607.90"/>
    <poi id="3958170276" type="amenity.cafe" color="237,199,199" layer="4.00" x="11516.94" y="5545.88"/>
    <poi id="3958171057" type="shop.bakery" color="237,199,255" layer="4.00" x="11533.12" y="5669.36"/>
    <poi id="3958171058" type="amenity.ice_cream" color="237,199,199" layer="4.00" x="11515.57" y="5674.16"/>
    <poi id="3958171059" type="amenity.restaurant" color="237,199,199" layer="4.00" x="11522.07" y="5457.96"/>
    <poi id="3958171060" type="shop.convenience" color="237,199,255" layer="4.00" x="11622.58" y="5319.08"/>
    <poi id="3958171157" type="shop.cosmetics" color="237,199,255" layer="4.00" x="11516.66" y="5667.66"/>
    <poi id="3958171174" type="amenity.cafe" color="237,199,199" layer="4.00" x="11535.24" y="5453.37"/>
    <poi id="3958171175" type="shop.convenience" color="237,199,255" layer="4.00" x="11524.29" y="5419.75"/>
    <poi id="3958171176" type="amenity.cafe" color="237,199,199" layer="4.00" x="11526.79" y="5419.58"/>