<?xml version="1.0" encoding="UTF-8"?>

<!-- generated on 09/14/21 14:21:51 by Eclipse SUMO netconvert Version 1.7.0
<configuration xmlns:xsi="http://www.w3.org/2001/XMLSchema-instance" xsi:noNamespaceSchemaLocation="http://sumo.dlr.de/xsd/netconvertConfiguration.xsd">

    <input>
        <type-files value="C:\Program%20Files%20(x86)\Eclipse\Sumo\data\typemap\osmNetconvert.typ.xml"/>
        <osm-files value="osm_bbox.osm.xml"/>
    </input>

    <output>
        <output-file value="osm.net.xml"/>
        <output.street-names value="true"/>
        <output.original-names value="true"/>
    </output>

    <projection>
        <proj.utm value="true"/>
    </projection>

    <processing>
        <geometry.remove value="true"/>
        <roundabouts.guess value="true"/>
    </processing>

    <tls_building>
        <tls.discard-simple value="true"/>
        <tls.join value="true"/>
        <tls.guess-signals value="true"/>
        <tls.default-type value="actuated"/>
    </tls_building>

    <ramp_guessing>
        <ramps.guess value="true"/>
    </ramp_guessing>

    <junctions>
        <junctions.join value="true"/>
        <junctions.corner-detail value="5"/>
    </junctions>

    <report>
        <verbose value="true"/>
        <aggregate-warnings value="5"/>
    </report>

</configuration>
-->

<net version="1.6" junctionCornerDetail="5" limitTurnSpeed="5.50" xmlns:xsi="http://www.w3.org/2001/XMLSchema-instance" xsi:noNamespaceSchemaLocation="http://sumo.dlr.de/xsd/net_file.xsd">

    <location netOffset="-314481.54,-4156025.77" convBoundary="0.00,0.00,17047.82,9348.90" origBoundary="126.899294,37.534097,127.091107,37.619961" projParameter="+proj=utm +zone=52 +ellps=WGS84 +datum=WGS84 +units=m +no_defs"/>

    <type id="highway.bridleway" priority="1" numLanes="1" speed="2.78" allow="pedestrian" oneway="1" width="2.00"/>
    <type id="highway.bus_guideway" priority="1" numLanes="1" speed="27.78" allow="bus" oneway="1"/>
    <type id="highway.cycleway" priority="1" numLanes="1" speed="8.33" allow="bicycle" oneway="0" width="1.00"/>
    <type id="highway.footway" priority="1" numLanes="1" speed="2.78" allow="pedestrian" oneway="1" width="2.00"/>
    <type id="highway.ford" priority="1" numLanes="1" speed="2.78" allow="army" oneway="0"/>
    <type id="highway.living_street" priority="2" numLanes="1" speed="2.78" disallow="tram rail_urban rail rail_electric rail_fast ship" oneway="0"/>
    <type id="highway.motorway" priority="14" numLanes="2" speed="39.44" allow="private emergency authority army vip passenger hov taxi bus coach delivery truck trailer motorcycle evehicle custom1 custom2" oneway="1"/>
    <type id="highway.motorway_link" priority="9" numLanes="1" speed="22.22" allow="private emergency authority army vip passenger hov taxi bus coach delivery truck trailer motorcycle evehicle custom1 custom2" oneway="1"/>
    <type id="highway.path" priority="1" numLanes="1" speed="2.78" allow="pedestrian bicycle" oneway="1" width="2.00"/>
    <type id="highway.pedestrian" priority="1" numLanes="1" speed="2.78" allow="pedestrian" oneway="1" width="2.00"/>
    <type id="highway.primary" priority="12" numLanes="2" speed="27.78" disallow="tram rail_urban rail rail_electric rail_fast ship" oneway="0"/>
    <type id="highway.primary_link" priority="7" numLanes="1" speed="22.22" disallow="tram rail_urban rail rail_electric rail_fast ship" oneway="0"/>
    <type id="highway.raceway" priority="15" numLanes="2" speed="83.33" allow="vip" oneway="0"/>
    <type id="highway.residential" priority="3" numLanes="1" speed="13.89" disallow="tram rail_urban rail rail_electric rail_fast ship" oneway="0"/>
    <type id="highway.secondary" priority="11" numLanes="1" speed="27.78" disallow="tram rail_urban rail rail_electric rail_fast ship" oneway="0"/>
    <type id="highway.secondary_link" priority="6" numLanes="1" speed="22.22" disallow="tram rail_urban rail rail_electric rail_fast ship" oneway="0"/>
    <type id="highway.service" priority="1" numLanes="1" speed="5.56" allow="pedestrian delivery bicycle" oneway="0"/>
    <type id="highway.stairs" priority="1" numLanes="1" speed="1.39" allow="pedestrian" oneway="1" width="2.00"/>
    <type id="highway.step" priority="1" numLanes="1" speed="1.39" allow="pedestrian" oneway="1" width="2.00"/>
    <type id="highway.steps" priority="1" numLanes="1" speed="1.39" allow="pedestrian" oneway="1" width="2.00"/>
    <type id="highway.tertiary" priority="10" numLanes="1" speed="22.22" disallow="tram rail_urban rail rail_electric rail_fast ship" oneway="0"/>
    <type id="highway.tertiary_link" priority="5" numLanes="1" speed="22.22" disallow="tram rail_urban rail rail_electric rail_fast ship" oneway="0"/>
    <type id="highway.track" priority="1" numLanes="1" speed="5.56" allow="pedestrian motorcycle moped bicycle" oneway="0"/>
    <type id="highway.trunk" priority="13" numLanes="2" speed="27.78" disallow="pedestrian bicycle tram rail_urban rail rail_electric rail_fast ship" oneway="0"/>
    <type id="highway.trunk_link" priority="8" numLanes="1" speed="22.22" disallow="pedestrian bicycle tram rail_urban rail rail_electric rail_fast ship" oneway="0"/>
    <type id="highway.unclassified" priority="4" numLanes="1" speed="13.89" disallow="tram rail_urban rail rail_electric rail_fast ship" oneway="0"/>
    <type id="highway.unsurfaced" priority="1" numLanes="1" speed="8.33" disallow="tram rail_urban rail rail_electric rail_fast ship" oneway="0"/>
    <type id="railway.highspeed" priority="21" numLanes="1" speed="69.44" allow="rail_fast" oneway="1"/>
    <type id="railway.light_rail" priority="19" numLanes="1" speed="27.78" allow="rail_urban" oneway="1"/>
    <type id="railway.preserved" priority="16" numLanes="1" speed="27.78" allow="rail" oneway="1"/>
    <type id="railway.rail" priority="20" numLanes="1" speed="44.44" allow="rail" oneway="1"/>
    <type id="railway.subway" priority="18" numLanes="1" speed="27.78" allow="rail_urban" oneway="1"/>
    <type id="railway.tram" priority="17" numLanes="1" speed="13.89" allow="tram" oneway="1"/>

    <edge id=":1835522568_0" function="internal">
        <lane id=":1835522568_0_0" index="0" disallow="tram rail_urban rail rail_electric rail_fast ship" speed="3.65" length="4.67" shape="11517.50,6016.76 11516.66,6017.93 11515.85,6018.30 11515.06,6017.87 11514.30,6016.65"/>
    </edge>
    <edge id=":1906215104_0" function="internal">
        <lane id=":1906215104_0_0" index="0" disallow="tram rail_urban rail rail_electric rail_fast ship" speed="3.65" length="4.67" shape="11085.08,4949.13 11084.65,4947.75 11084.84,4946.88 11085.65,4946.50 11087.09,4946.64"/>
    </edge>
    <edge id=":1939144064_0" function="internal">
        <lane id=":1939144064_0_0" index="0" disallow="tram rail_urban rail rail_electric rail_fast ship" speed="3.65" length="4.67" shape="10912.03,5283.10 10911.55,5281.74 10911.70,5280.86 10912.50,5280.46 10913.94,5280.53"/>
    </edge>
    <edge id=":1943131843_0" function="internal">
        <lane id=":1943131843_0_0" index="0" disallow="tram rail_urban rail rail_electric rail_fast ship" speed="6.77" length="9.29" shape="11460.22,5257.29 11458.06,5256.13 11455.97,5255.94 11453.96,5256.69 11452.02,5258.41"/>
    </edge>
    <edge id=":1943131843_1" function="internal">
        <lane id=":1943131843_1_0" index="0" disallow="tram rail_urban rail rail_electric rail_fast ship" speed="27.78" length="14.33" shape="11460.22,5257.29 11448.93,5248.47"/>
    </edge>
    <edge id=":1943131843_2" function="internal">
        <lane id=":1943131843_2_0" index="0" disallow="tram rail_urban rail rail_electric rail_fast ship" speed="3.65" length="2.34" shape="11460.22,5257.29 11459.73,5255.93 11459.89,5255.05"/>
    </edge>
    <edge id=":1943131843_9" function="internal">
        <lane id=":1943131843_9_0" index="0" disallow="tram rail_urban rail rail_electric rail_fast ship" speed="3.65" length="2.34" shape="11459.89,5255.05 11460.69,5254.64 11462.13,5254.71"/>
    </edge>
    <edge id=":1943131843_3" function="internal">
        <lane id=":1943131843_3_0" index="0" disallow="tram rail_urban rail rail_electric rail_fast ship" speed="27.78" length="14.17" shape="11450.96,5246.00 11462.13,5254.71"/>
    </edge>
    <edge id=":1943131843_4" function="internal">
        <lane id=":1943131843_4_0" index="0" disallow="tram rail_urban rail rail_electric rail_fast ship" speed="7.95" length="5.68" shape="11450.96,5246.00 11453.62,5248.90 11454.19,5250.55"/>
    </edge>
    <edge id=":1943131843_5" function="internal">
        <lane id=":1943131843_5_0" index="0" disallow="tram rail_urban rail rail_electric rail_fast ship" speed="3.65" length="2.34" shape="11450.96,5246.00 11451.38,5247.38 11451.18,5248.25"/>
    </edge>
    <edge id=":1943131843_10" function="internal">
        <lane id=":1943131843_10_0" index="0" disallow="tram rail_urban rail rail_electric rail_fast ship" speed="7.95" length="8.61" shape="11454.19,5250.55 11454.68,5251.93 11454.14,5255.10 11452.02,5258.41"/>
    </edge>
    <edge id=":1943131843_11" function="internal">
        <lane id=":1943131843_11_0" index="0" disallow="tram rail_urban rail rail_electric rail_fast ship" speed="3.65" length="2.34" shape="11451.18,5248.25 11450.37,5248.61 11448.93,5248.47"/>
    </edge>
    <edge id=":1943131843_6" function="internal">
        <lane id=":1943131843_6_0" index="0" disallow="tram rail_urban rail rail_electric rail_fast ship" speed="6.45" length="9.03" shape="11449.60,5256.32 11450.94,5254.23 11451.28,5252.22 11450.61,5250.30 11448.93,5248.47"/>
    </edge>
    <edge id=":1943131843_7" function="internal">
        <lane id=":1943131843_7_0" index="0" disallow="tram rail_urban rail rail_electric rail_fast ship" speed="8.22" length="14.17" shape="11449.60,5256.32 11452.53,5253.73 11455.60,5252.60 11458.80,5252.93 11462.13,5254.71"/>
    </edge>
    <edge id=":1943131843_8" function="internal">
        <lane id=":1943131843_8_0" index="0" disallow="tram rail_urban rail rail_electric rail_fast ship" speed="3.65" length="4.67" shape="11449.60,5256.32 11450.99,5255.93 11451.86,5256.15 11452.20,5256.98 11452.02,5258.41"/>
    </edge>
    <edge id=":1943131877_0" function="internal">
        <lane id=":1943131877_0_0" index="0" disallow="tram rail_urban rail rail_electric rail_fast ship" speed="6.99" length="8.86" shape="11539.27,5266.64 11539.33,5268.87 11540.11,5270.73 11541.62,5272.21 11543.86,5273.31"/>
    </edge>
    <edge id=":1943131877_1" function="internal">
        <lane id=":1943131877_1_0" index="0" disallow="tram rail_urban rail rail_electric rail_fast ship" speed="27.78" length="11.07" shape="11539.27,5266.64 11537.83,5277.62"/>
    </edge>
    <edge id=":1943131877_2" function="internal">
        <lane id=":1943131877_2_0" index="0" disallow="tram rail_urban rail rail_electric rail_fast ship" speed="3.65" length="2.34" shape="11539.27,5266.64 11538.32,5267.73 11537.48,5268.03"/>
    </edge>
    <edge id=":1943131877_9" function="internal">
        <lane id=":1943131877_9_0" index="0" disallow="tram rail_urban rail rail_electric rail_fast ship" speed="3.65" length="2.34" shape="11537.48,5268.03 11536.74,5267.53 11536.09,5266.24"/>
    </edge>
    <edge id=":1943131877_3" function="internal">
        <lane id=":1943131877_3_0" index="0" disallow="tram rail_urban rail rail_electric rail_fast ship" speed="7.30" length="9.12" shape="11529.81,5271.87 11532.34,5271.18 11534.23,5270.01 11535.48,5268.36 11536.09,5266.24"/>
    </edge>
    <edge id=":1943131877_4" function="internal">
        <lane id=":1943131877_4_0" index="0" disallow="tram rail_urban rail rail_electric rail_fast ship" speed="8.33" length="14.27" shape="11529.81,5271.87 11533.43,5271.53 11536.92,5271.67 11540.37,5272.27 11543.86,5273.31"/>
    </edge>
    <edge id=":1943131877_5" function="internal">
        <lane id=":1943131877_5_0" index="0" disallow="tram rail_urban rail rail_electric rail_fast ship" speed="6.78" length="12.12" shape="11529.81,5271.87 11533.69,5271.69 11536.31,5272.58 11537.70,5274.56 11537.83,5277.62"/>
    </edge>
    <edge id=":1943131877_6" function="internal">
        <lane id=":1943131877_6_0" index="0" disallow="tram rail_urban rail rail_electric rail_fast ship" speed="27.78" length="11.04" shape="11534.66,5277.19 11536.09,5266.24"/>
    </edge>
    <edge id=":1943131877_7" function="internal">
        <lane id=":1943131877_7_0" index="0" disallow="tram rail_urban rail rail_electric rail_fast ship" speed="6.91" length="4.50" shape="11534.66,5277.19 11535.58,5274.40 11536.77,5273.38"/>
    </edge>
    <edge id=":1943131877_8" function="internal">
        <lane id=":1943131877_8_0" index="0" disallow="tram rail_urban rail rail_electric rail_fast ship" speed="3.65" length="2.34" shape="11534.66,5277.19 11535.61,5276.10 11536.46,5275.81"/>
    </edge>
    <edge id=":1943131877_10" function="internal">
        <lane id=":1943131877_10_0" index="0" disallow="tram rail_urban rail rail_electric rail_fast ship" speed="6.91" length="7.41" shape="11536.77,5273.38 11537.42,5272.83 11540.18,5272.46 11543.86,5273.31"/>
    </edge>
    <edge id=":1943131877_11" function="internal">
        <lane id=":1943131877_11_0" index="0" disallow="tram rail_urban rail rail_electric rail_fast ship" speed="3.65" length="2.34" shape="11536.46,5275.81 11537.20,5276.32 11537.83,5277.62"/>
    </edge>
    <edge id=":1943131943_0" function="internal">
        <lane id=":1943131943_0_0" index="0" disallow="tram rail_urban rail rail_electric rail_fast ship" speed="8.33" length="9.02" shape="11496.58,5328.87 11495.30,5326.53 11494.54,5324.85 11494.06,5323.08 11493.57,5320.45"/>
    </edge>
    <edge id=":1943131943_1" function="internal">
        <lane id=":1943131943_1_0" index="0" disallow="tram rail_urban rail rail_electric rail_fast ship" speed="5.79" length="5.74" shape="11492.35,5325.67 11493.17,5325.03 11493.65,5323.95 11493.78,5322.42 11493.57,5320.45"/>
    </edge>
    <edge id=":1943131960_0" function="internal">
        <lane id=":1943131960_0_0" index="0" disallow="tram rail_urban rail rail_electric rail_fast ship" speed="6.89" length="8.94" shape="11443.66,5353.56 11442.08,5351.75 11440.26,5350.76 11438.19,5350.60 11435.89,5351.25"/>
    </edge>
    <edge id=":1943131960_1" function="internal">
        <lane id=":1943131960_1_0" index="0" disallow="tram rail_urban rail rail_electric rail_fast ship" speed="7.07" length="4.22" shape="11443.66,5353.56 11442.51,5350.79 11442.70,5349.58"/>
    </edge>
    <edge id=":1943131960_2" function="internal">
        <lane id=":1943131960_2_0" index="0" disallow="tram rail_urban rail rail_electric rail_fast ship" speed="3.65" length="2.34" shape="11443.66,5353.56 11443.67,5352.11 11444.12,5351.34"/>
    </edge>
    <edge id=":1943131960_9" function="internal">
        <lane id=":1943131960_9_0" index="0" disallow="tram rail_urban rail rail_electric rail_fast ship" speed="7.07" length="8.14" shape="11442.70,5349.58 11442.90,5348.31 11444.81,5346.12 11448.26,5344.20"/>
    </edge>
    <edge id=":1943131960_10" function="internal">
        <lane id=":1943131960_10_0" index="0" disallow="tram rail_urban rail rail_electric rail_fast ship" speed="3.65" length="2.34" shape="11444.12,5351.34 11445.00,5351.24 11446.33,5351.80"/>
    </edge>
    <edge id=":1943131960_3" function="internal">
        <lane id=":1943131960_3_0" index="0" disallow="tram rail_urban rail rail_electric rail_fast ship" speed="7.39" length="11.85" shape="11438.49,5340.56 11440.17,5343.24 11442.36,5344.75 11445.05,5345.07 11448.26,5344.20"/>
    </edge>
    <edge id=":1943131960_4" function="internal">
        <lane id=":1943131960_4_0" index="0" disallow="tram rail_urban rail rail_electric rail_fast ship" speed="13.89" length="13.74" shape="11438.49,5340.56 11440.17,5343.66 11442.13,5346.33 11444.23,5348.92 11446.33,5351.80"/>
    </edge>
    <edge id=":1943131960_5" function="internal">
        <lane id=":1943131960_5_0" index="0" disallow="tram rail_urban rail rail_electric rail_fast ship" speed="7.55" length="8.88" shape="11438.49,5340.56 11439.64,5344.23 11439.58,5347.24 11438.63,5349.03"/>
    </edge>
    <edge id=":1943131960_11" function="internal">
        <lane id=":1943131960_11_0" index="0" disallow="tram rail_urban rail rail_electric rail_fast ship" speed="7.55" length="3.59" shape="11438.63,5349.03 11438.33,5349.58 11435.89,5351.25"/>
    </edge>
    <edge id=":1943131960_6" function="internal">
        <lane id=":1943131960_6_0" index="0" disallow="tram rail_urban rail rail_electric rail_fast ship" speed="13.89" length="14.28" shape="11434.60,5348.32 11438.02,5347.10 11441.42,5346.24 11444.82,5345.38 11448.26,5344.20"/>
    </edge>
    <edge id=":1943131960_7" function="internal">
        <lane id=":1943131960_7_0" index="0" disallow="tram rail_urban rail rail_electric rail_fast ship" speed="8.33" length="13.50" shape="11434.60,5348.32 11438.08,5347.33 11441.20,5347.58 11443.95,5349.07 11446.33,5351.80"/>
    </edge>
    <edge id=":1943131960_8" function="internal">
        <lane id=":1943131960_8_0" index="0" disallow="tram rail_urban rail rail_electric rail_fast ship" speed="3.65" length="4.67" shape="11434.60,5348.32 11436.02,5348.57 11436.71,5349.14 11436.66,5350.04 11435.89,5351.25"/>
    </edge>
    <edge id=":1943131968_0" function="internal">
        <lane id=":1943131968_0_0" index="0" disallow="tram rail_urban rail rail_electric rail_fast ship" speed="8.33" length="5.59" shape="11518.47,5349.96 11516.89,5349.47 11515.84,5349.02 11514.88,5348.41 11513.55,5347.42"/>
    </edge>
    <edge id=":1943131977_0" function="internal">
        <lane id=":1943131977_0_0" index="0" disallow="tram rail_urban rail rail_electric rail_fast ship" speed="8.33" length="5.27" shape="11543.32,5351.65 11541.81,5352.05 11540.76,5352.29 11539.70,5352.44 11538.15,5352.60"/>
    </edge>
    <edge id=":1943131979_0" function="internal">
        <lane id=":1943131979_0_0" index="0" disallow="tram rail_urban rail rail_electric rail_fast ship" speed="6.80" length="9.10" shape="11536.66,5352.74 11534.17,5353.31 11532.38,5354.47 11531.29,5356.21 11530.90,5358.54"/>
    </edge>
    <edge id=":1943131979_1" function="internal">
        <lane id=":1943131979_1_0" index="0" disallow="tram rail_urban rail rail_electric rail_fast ship" speed="8.33" length="11.38" shape="11536.66,5352.74 11533.47,5353.04 11530.96,5353.11 11528.48,5352.82 11525.40,5352.03"/>
    </edge>
    <edge id=":1943131979_2" function="internal">
        <lane id=":1943131979_2_0" index="0" disallow="tram rail_urban rail rail_electric rail_fast ship" speed="13.89" length="11.37" shape="11531.06,5347.17 11530.90,5358.54"/>
    </edge>
    <edge id=":1943131979_3" function="internal">
        <lane id=":1943131979_3_0" index="0" disallow="tram rail_urban rail rail_electric rail_fast ship" speed="6.01" length="9.18" shape="11531.06,5347.17 11530.68,5349.92 11529.61,5351.65 11527.85,5352.36 11525.40,5352.03"/>
    </edge>
    <edge id=":1943131992_0" function="internal">
        <lane id=":1943131992_0_0" index="0" allow="pedestrian delivery bicycle" speed="4.72" length="5.59" shape="11472.86,5401.36 11472.19,5399.86 11471.28,5399.14 11470.13,5399.21 11468.73,5400.07"/>
    </edge>
    <edge id=":1943131992_1" function="internal">
        <lane id=":1943131992_1_0" index="0" disallow="tram rail_urban rail rail_electric rail_fast ship" speed="13.89" length="13.40" shape="11472.86,5401.36 11471.77,5398.03 11470.51,5395.10 11468.99,5392.28 11467.13,5389.31"/>
    </edge>
    <edge id=":1943131992_2" function="internal">
        <lane id=":1943131992_2_0" index="0" disallow="tram rail_urban rail rail_electric rail_fast ship" speed="9.66" length="3.09" shape="11472.86,5401.36 11472.43,5398.29"/>
    </edge>
    <edge id=":1943131992_3" function="internal">
        <lane id=":1943131992_3_0" index="0" disallow="tram rail_urban rail rail_electric rail_fast ship" speed="3.65" length="2.34" shape="11472.86,5401.36 11473.29,5399.98 11473.95,5399.38"/>
    </edge>
    <edge id=":1943131992_16" function="internal">
        <lane id=":1943131992_16_0" index="0" disallow="tram rail_urban rail rail_electric rail_fast ship" speed="9.66" length="11.23" shape="11472.43,5398.29 11472.38,5397.89 11472.98,5394.62 11474.66,5391.54 11477.43,5388.66"/>
    </edge>
    <edge id=":1943131992_17" function="internal">
        <lane id=":1943131992_17_0" index="0" disallow="tram rail_urban rail rail_electric rail_fast ship" speed="3.65" length="2.34" shape="11473.95,5399.38 11474.83,5399.54 11475.93,5400.48"/>
    </edge>
    <edge id=":1943131992_4" function="internal">
        <lane id=":1943131992_4_0" index="0" disallow="tram rail_urban rail rail_electric rail_fast ship" speed="8.39" length="10.64" shape="11479.49,5391.10 11477.38,5393.28 11476.09,5395.57 11475.60,5397.97 11475.93,5400.48"/>
    </edge>
    <edge id=":1943131992_5" function="internal">
        <lane id=":1943131992_5_0" index="0" allow="pedestrian delivery bicycle" speed="9.72" length="14.00" shape="11479.49,5391.10 11468.73,5400.07"/>
    </edge>
    <edge id=":1943131992_6" function="internal">
        <lane id=":1943131992_6_0" index="0" disallow="tram rail_urban rail rail_electric rail_fast ship" speed="7.80" length="14.67" shape="11479.49,5391.10 11476.02,5393.27 11472.80,5393.69 11469.84,5392.37 11467.13,5389.31"/>
    </edge>
    <edge id=":1943131992_7" function="internal">
        <lane id=":1943131992_7_0" index="0" disallow="tram rail_urban rail rail_electric rail_fast ship" speed="3.65" length="4.67" shape="11479.49,5391.10 11478.06,5391.27 11477.23,5390.91 11477.02,5390.04 11477.43,5388.66"/>
    </edge>
    <edge id=":1943131992_8" function="internal">
        <lane id=":1943131992_8_0" index="0" disallow="tram rail_urban rail rail_electric rail_fast ship" speed="6.26" length="9.04" shape="11469.80,5387.55 11471.48,5389.44 11473.30,5390.25 11475.29,5389.99 11477.43,5388.66"/>
    </edge>
    <edge id=":1943131992_9" function="internal">
        <lane id=":1943131992_9_0" index="0" disallow="tram rail_urban rail rail_electric rail_fast ship" speed="13.89" length="14.36" shape="11469.80,5387.55 11471.73,5390.66 11473.38,5393.78 11474.78,5397.02 11475.93,5400.48"/>
    </edge>
    <edge id=":1943131992_10" function="internal">
        <lane id=":1943131992_10_0" index="0" allow="pedestrian delivery bicycle" speed="8.10" length="7.42" shape="11469.80,5387.55 11471.03,5390.63 11471.26,5394.19 11471.14,5394.71"/>
    </edge>
    <edge id=":1943131992_11" function="internal">
        <lane id=":1943131992_11_0" index="0" disallow="tram rail_urban rail rail_electric rail_fast ship" speed="3.65" length="2.34" shape="11469.80,5387.55 11469.79,5388.99 11469.34,5389.77"/>
    </edge>
    <edge id=":1943131992_18" function="internal">
        <lane id=":1943131992_18_0" index="0" allow="pedestrian delivery bicycle" speed="8.10" length="5.98" shape="11471.14,5394.71 11470.50,5397.56 11468.73,5400.07"/>
    </edge>
    <edge id=":1943131992_19" function="internal">
        <lane id=":1943131992_19_0" index="0" disallow="tram rail_urban rail rail_electric rail_fast ship" speed="3.65" length="2.34" shape="11469.34,5389.77 11468.46,5389.87 11467.13,5389.31"/>
    </edge>
    <edge id=":1943131992_12" function="internal">
        <lane id=":1943131992_12_0" index="0" allow="pedestrian delivery bicycle" speed="6.83" length="9.23" shape="11466.70,5397.59 11468.16,5395.90 11468.72,5393.96 11468.37,5391.76 11467.13,5389.31"/>
    </edge>
    <edge id=":1943131992_13" function="internal">
        <lane id=":1943131992_13_0" index="0" allow="pedestrian delivery bicycle" speed="9.72" length="13.96" shape="11466.70,5397.59 11477.43,5388.66"/>
    </edge>
    <edge id=":1943131992_14" function="internal">
        <lane id=":1943131992_14_0" index="0" allow="pedestrian delivery bicycle" speed="6.67" length="12.51" shape="11466.70,5397.59 11469.83,5395.68 11472.41,5395.52 11474.45,5397.12 11475.93,5400.48"/>
    </edge>
    <edge id=":1943131992_15" function="internal">
        <lane id=":1943131992_15_0" index="0" allow="pedestrian delivery bicycle" speed="3.65" length="4.67" shape="11466.70,5397.59 11468.14,5397.45 11468.95,5397.81 11469.15,5398.69 11468.73,5400.07"/>
    </edge>
    <edge id=":1943132014_0" function="internal">
        <lane id=":1943132014_0_0" index="0" disallow="tram rail_urban rail rail_electric rail_fast ship" speed="27.78" length="11.63" shape="11484.21,5723.51 11472.49,5723.35"/>
        <lane id=":1943132014_0_1" index="1" disallow="tram rail_urban rail rail_electric rail_fast ship" speed="27.78" length="11.63" shape="11484.21,5720.31 11472.58,5720.15"/>
        <lane id=":1943132014_0_2" index="2" disallow="tram rail_urban rail rail_electric rail_fast ship" speed="27.78" length="11.63" shape="11484.20,5717.11 11472.67,5716.95"/>
    </edge>
    <edge id=":1943132014_3" function="internal">
        <lane id=":1943132014_3_0" index="0" disallow="tram rail_urban rail rail_electric rail_fast ship" speed="7.93" length="3.75" shape="11484.20,5717.11 11481.78,5716.41 11480.99,5715.46"/>
    </edge>
    <edge id=":1943132014_4" function="internal">
        <lane id=":1943132014_4_0" index="0" disallow="tram rail_urban rail rail_electric rail_fast ship" speed="3.65" length="2.34" shape="11484.20,5717.11 11483.00,5716.31 11482.60,5715.51"/>
    </edge>
    <edge id=":1943132014_10" function="internal">
        <lane id=":1943132014_10_0" index="0" disallow="tram rail_urban rail rail_electric rail_fast ship" speed="7.93" length="10.09" shape="11480.99,5715.46 11480.04,5714.31 11478.97,5710.80 11478.58,5705.89"/>
    </edge>
    <edge id=":1943132014_11" function="internal">
        <lane id=":1943132014_11_0" index="0" disallow="tram rail_urban rail rail_electric rail_fast ship" speed="3.65" length="2.34" shape="11482.60,5715.51 11483.00,5714.71 11484.19,5713.91"/>
    </edge>
    <edge id=":1943132014_5" function="internal">
        <lane id=":1943132014_5_0" index="0" disallow="tram rail_urban rail rail_electric rail_fast ship" speed="5.45" length="6.20" shape="11472.94,5707.35 11475.41,5707.32 11477.18,5707.07 11478.23,5706.59 11478.58,5705.89"/>
    </edge>
    <edge id=":1943132014_6" function="internal">
        <lane id=":1943132014_6_0" index="0" disallow="tram rail_urban rail rail_electric rail_fast ship" speed="27.78" length="11.34" shape="11472.94,5707.35 11484.18,5707.51"/>
        <lane id=":1943132014_6_1" index="1" disallow="tram rail_urban rail rail_electric rail_fast ship" speed="27.78" length="11.34" shape="11472.85,5710.55 11484.19,5710.71"/>
        <lane id=":1943132014_6_2" index="2" disallow="tram rail_urban rail rail_electric rail_fast ship" speed="27.78" length="11.34" shape="11472.76,5713.75 11484.19,5713.91"/>
    </edge>
    <edge id=":1943132014_9" function="internal">
        <lane id=":1943132014_9_0" index="0" disallow="tram rail_urban rail rail_electric rail_fast ship" speed="3.65" length="2.34" shape="11472.76,5713.75 11473.94,5714.58 11474.31,5715.39"/>
    </edge>
    <edge id=":1943132014_12" function="internal">
        <lane id=":1943132014_12_0" index="0" disallow="tram rail_urban rail rail_electric rail_fast ship" speed="3.65" length="2.34" shape="11474.31,5715.39 11473.89,5716.18 11472.67,5716.95"/>
    </edge>
    <edge id=":287672856_0" function="internal">
        <lane id=":287672856_0_0" index="0" disallow="tram rail_urban rail rail_electric rail_fast ship" speed="10.20" length="29.21" shape="11037.88,5753.36 11030.81,5753.41 11026.74,5749.46 11024.97,5742.42 11024.81,5733.21"/>
    </edge>
    <edge id=":287672856_1" function="internal">
        <lane id=":287672856_1_0" index="0" disallow="tram rail_urban rail rail_electric rail_fast ship" speed="5.95" length="9.09" shape="11028.01,5733.34 11028.27,5735.94 11029.31,5737.57 11031.13,5738.22 11033.72,5737.91"/>
    </edge>
    <edge id=":287672856_2" function="internal">
        <lane id=":287672856_2_0" index="0" disallow="tram rail_urban rail rail_electric rail_fast ship" speed="6.82" length="12.37" shape="11028.01,5733.34 11028.27,5737.39 11029.45,5740.02 11031.54,5741.22 11034.55,5741.00"/>
    </edge>
    <edge id=":287672856_3" function="internal">
        <lane id=":287672856_3_0" index="0" disallow="tram rail_urban rail rail_electric rail_fast ship" speed="7.62" length="15.74" shape="11028.01,5733.34 11028.27,5738.84 11029.59,5742.46 11031.96,5744.21 11035.38,5744.09"/>
    </edge>
    <edge id=":291715721_0" function="internal">
        <lane id=":291715721_0_0" index="0" allow="pedestrian delivery bicycle" speed="5.20" length="6.62" shape="11479.09,5428.77 11478.85,5426.55 11478.18,5425.12 11477.08,5424.48 11475.55,5424.63"/>
    </edge>
    <edge id=":291715721_1" function="internal">
        <lane id=":291715721_1_0" index="0" disallow="tram rail_urban rail rail_electric rail_fast ship" speed="13.89" length="14.94" shape="11479.09,5428.77 11478.86,5425.04 11478.29,5421.36 11477.47,5417.71 11476.50,5414.09"/>
    </edge>
    <edge id=":291715721_2" function="internal">
        <lane id=":291715721_2_0" index="0" disallow="tram rail_urban rail rail_electric rail_fast ship" speed="8.33" length="5.08" shape="11479.09,5428.77 11479.51,5424.59 11479.86,5423.77"/>
    </edge>
    <edge id=":291715721_12" function="internal">
        <lane id=":291715721_12_0" index="0" disallow="tram rail_urban rail rail_electric rail_fast ship" speed="8.33" length="8.94" shape="11479.86,5423.77 11480.86,5421.47 11483.13,5419.41 11486.33,5418.40"/>
    </edge>
    <edge id=":291715721_3" function="internal">
        <lane id=":291715721_3_0" index="0" allow="pedestrian delivery bicycle" speed="9.72" length="12.02" shape="11487.13,5421.52 11483.90,5422.07 11481.27,5422.76 11478.67,5423.61 11475.55,5424.63"/>
    </edge>
    <edge id=":291715721_4" function="internal">