<?xml version="1.0" encoding="UTF-8"?>

<!-- generated on 09/28/21 19:39:06 by Eclipse SUMO duarouter Version 1.7.0
<configuration xmlns:xsi="http://www.w3.org/2001/XMLSchema-instance" xsi:noNamespaceSchemaLocation="http://sumo.dlr.de/xsd/duarouterConfiguration.xsd">

    <input>
        <net-file value="C:\Users\gggla\Sumo\2021-09-28-19-38-49\osm.net.xml"/>
        <route-files value="C:\Users\gggla\Sumo\2021-09-28-19-38-49\osm.passenger.trips.xml"/>
    </input>

    <output>
        <output-file value="C:\Users\gggla\Sumo\2021-09-28-19-38-49\osm.passenger.trips.xml.tmp"/>
        <write-trips value="true"/>
    </output>

    <time>
        <begin value="0"/>
        <end value="3600"/>
    </time>

    <report>
        <no-warnings value="true"/>
        <ignore-errors value="true"/>
        <no-step-log value="true"/>
    </report>

</configuration>
-->

<routes xmlns:xsi="http://www.w3.org/2001/XMLSchema-instance" xsi:noNamespaceSchemaLocation="http://sumo.dlr.de/xsd/routes_file.xsd">
    <vType id="veh_passenger" vClass="passenger"/>
    <trip id="0" type="veh_passenger" depart="0.00" departLane="best" departSpeed="max" from="378453707#0" to="-180190213#0"/>
    <trip id="1" type="veh_passenger" depart="3.29" departLane="best" from="506252728" to="420345572#2"/>
    <trip id="2" type="veh_passenger" depart="6.59" departLane="best" from="732213463#12" to="-233651317#1"/>
    <trip id="3" type="veh_passenger" depart="9.88" departLane="best" from="218919060#2" to="-183272472"/>
    <trip id="4" type="veh_passenger" depart="13.17" departLane="best" from="170207585#2" to="220027347#2"/>
    <trip id="5" type="veh_passenger" depart="16.46" departLane="best" from="-170403831#4" to="117914848#2"/>
    <trip id="6" type="veh_passenger" depart="19.76" departLane="best" departSpeed="max" from="378453707#0" to="233651270#2"/>
    <trip id="7" type="veh_passenger" depart="23.05" departLane="best" from="170403788#0" to="245063636#3"/>
    <trip id="8" type="veh_passenger" depart="26.34" departLane="best" from="517706841#3" to="-170207591#1"/>
    <trip id="9" type="veh_passenger" depart="29.63" departLane="best" from="517706841#1" to="469260694#2"/>
    <trip id="10" type="veh_passenger" depart="32.93" departLane="best" departSpeed="max" from="184083202#0" to="-420345572#3"/>
    <trip id="12" type="veh_passenger" depart="39.51" departLane="best" from="620634304#0" to="344663874"/>
    <trip id="13" type="veh_passenger" depart="42.80" departLane="best" from="517706841#2" to="517641011#1"/>
    <trip id="14" type="veh_passenger" depart="46.10" departLane="best" from="198564925#2" to="233651289#0"/>
    <trip id="15" type="veh_passenger" depart="49.39" departLane="best" from="620634304#2" to="233651333#4"/>
    <trip id="17" type="veh_passenger" depart="55.97" departLane="best" from="170403810#1" to="184083187#2"/>
    <trip id="19" type="veh_passenger" depart="62.56" departLane="best" from="-233651328#0" to="184083183#1"/>
    <trip id="20" type="veh_passenger" depart="65.85" departLane="best" departSpeed="max" from="378453707#0" to="198691078"/>
    <trip id="21" type="veh_passenger" depart="69.14" departLane="best" departSpeed="max" from="184444067#0" to="170403780#1"/>
    <trip id="23" type="veh_passenger" depart="75.73" departLane="best" departSpeed="max" from="378453707#0" to="344663901#3"/>
    <trip id="24" type="veh_passenger" depart="79.02" departLane="best" departSpeed="max" from="-420348549#1" to="517641011#1"/>
    <trip id="25" type="veh_passenger" depart="82.31" departLane="best" departSpeed="max" from="-419812903" to="218769254#3"/>
    <trip id="27" type="veh_passenger" depart="88.90" departLane="best" from="233651317#0" to="420361195#3"/>
    <trip id="29" type="veh_passenger" depart="95.48" departLane="best" from="170403810#2" to="-184443140"/>
    <trip id="30" type="veh_passenger" depart="98.78" departLane="best" from="184083199#13" to="184083181#0"/>
    <trip id="31" type="veh_passenger" depart="102.07" departLane="best" from="117784420#2" to="782892487"/>
    <trip id="32" type="veh_passenger" depart="105.36" departLane="best" from="717851360#1" to="184083199#4"/>
    <trip id="33" type="veh_passenger" depart="108.65" departLane="best" departSpeed="max" from="378453707#0" to="218835937#3"/>
    <trip id="34" type="veh_passenger" depart="111.95" departLane="best" from="73541403#10" to="218924602#2"/>
    <trip id="36" type="veh_passenger" depart="118.53" departLane="best" from="233651326#0" to="184083158#3"/>
    <trip id="37" type="veh_passenger" depart="121.82" departLane="best" departSpeed="max" from="26658460#0" to="732213463#14"/>
    <trip id="38" type="veh_passenger" depart="125.12" departLane="best" from="218769254#1" to="170403804#2"/>
    <trip id="39" type="veh_passenger" depart="128.41" departLane="best" from="919985574#1" to="220027347#4"/>
    <trip id="40" type="veh_passenger" depart="131.70" departLane="best" from="-233651296#2" to="-215843535#1"/>
    <trip id="41" type="veh_passenger" depart="134.99" departLane="best" from="-228795475" to="218769254#4"/>
    <trip id="42" type="veh_passenger" depart="138.29" departLane="best" departSpeed="max" from="919985574#0" to="228795467#0"/>
    <trip id="43" type="veh_passenger" depart="141.58" departLane="best" departSpeed="max" from="913565824#0" to="620634303#5"/>
    <trip id="44" type="veh_passenger" depart="144.87" departLane="best" from="-170403788#1" to="506162633"/>
    <trip id="45" type="veh_passenger" depart="148.16" departLane="best" from="378453707#4" to="228795481#1"/>
    <trip id="47" type="veh_passenger" depart="154.75" departLane="best" from="-233652295#0" to="218923160#4"/>
    <trip id="48" type="veh_passenger" depart="158.04" departLane="best" from="218923188#2" to="782892488#3"/>
    <trip id="49" type="veh_passenger" depart="161.33" departLane="best" departSpeed="max" from="717851360#0" to="184083158#3"/>
    <trip id="50" type="veh_passenger" depart="164.63" departLane="best" from="220027347#0" to="-73550864#0"/>
    <trip id="52" type="veh_passenger" depart="171.21" departLane="best" departSpeed="max" from="516417601#0" to="228795484#1"/>
    <trip id="53" type="veh_passenger" depart="174.50" departLane="best" from="517641011#5" to="228795468#0"/>
    <trip id="55" type="veh_passenger" depart="181.09" departLane="best" from="-170403810#3" to="73550863#1"/>
    <trip id="56" type="veh_passenger" depart="184.38" departLane="best" from="717851360#3" to="620634303#3"/>
    <trip id="57" type="veh_passenger" depart="187.67" departLane="best" from="717851360#2" to="782892487"/>
    <trip id="58" type="veh_passenger" depart="190.97" departLane="best" from="-233651294#0" to="218974504#3"/>
    <trip id="59" type="veh_passenger" depart="194.26" departLane="best" from="-228795484#1" to="517641017#6"/>
    <trip id="60" type="veh_passenger" depart="197.55" departLane="best" from="517641011#0" to="-344663892#0"/>
    <trip id="61" type="veh_passenger" depart="200.84" departLane="best" from="218960897#1" to="233651285#1"/>
    <trip id="62" type="veh_passenger" depart="204.14" departLane="best" from="218919060#2" to="170403780#1"/>
    <trip id="63" type="veh_passenger" depart="207.43" departLane="best" from="228795484#1" to="517641011#1"/>
    <trip id="64" type="veh_passenger" depart="210.72" departLane="best" departSpeed="max" from="-829964067" to="184083199#2"/>
    <trip id="65" type="veh_passenger" depart="214.01" departLane="best" departSpeed="max" from="919985574#0" to="378453707#3"/>
    <trip id="66" type="veh_passenger" depart="217.31" departLane="best" from="218923160#1" to="220027347#7"/>
    <trip id="67" type="veh_passenger" depart="220.60" departLane="best" from="-318750942#3" to="170403818#2"/>
    <trip id="68" type="veh_passenger" depart="223.89" departLane="best" from="184083199#9" to="245063636#3"/>
    <trip id="69" type="veh_passenger" depart="227.18" departLane="best" from="-233651266" to="360113081#1"/>
    <trip id="70" type="veh_passenger" depart="230.48" departLane="best" from="170403826#1" to="419812902"/>
    <trip id="71" type="veh_passenger" depart="233.77" departLane="best" from="170207582#0" to="-344663901#2"/>
    <trip id="72" type="veh_passenger" depart="237.06" departLane="best" from="782892488#2" to="233651328#1"/>
    <trip id="73" type="veh_passenger" depart="240.35" departLane="best" departSpeed="max" from="218960897#0" to="616037664"/>
    <trip id="74" type="veh_passenger" depart="243.65" departLane="best" from="517706841#2" to="117784413#1"/>
    <trip id="75" type="veh_passenger" depart="246.94" departLane="best" from="218919060#2" to="218924602#9"/>
    <trip id="76" type="veh_passenger" depart="250.23" departLane="best" from="474532059#3" to="419812903"/>
    <trip id="77" type="veh_passenger" depart="253.52" departLane="best" departSpeed="max" from="919985574#0" to="-233651332#4"/>
    <trip id="78" type="veh_passenger" depart="256.82" departLane="best" from="218769254#4" to="184083240#0"/>
    <trip id="79" type="veh_passenger" depart="260.11" departLane="best" from="-73550864#1" to="218923184#3"/>
    <trip id="80" type="veh_passenger" depart="263.40" departLane="best" from="218919060#2" to="184083183#1"/>
    <trip id="81" type="veh_passenger" depart="266.69" departLane="best" departSpeed="max" from="183272472" to="73541403#3"/>
    <trip id="82" type="veh_passenger" depart="269.99" departLane="best" from="218923160#3" to="620634303#5"/>
    <trip id="83" type="veh_passenger" depart="273.28" departLane="best" from="233651290" to="-218923156#0"/>
    <trip id="84" type="veh_passenger" depart="276.57" departLane="best" from="919985574#1" to="620634303#4"/>
    <trip id="85" type="veh_passenger" depart="279.86" departLane="best" departSpeed="max" from="913565824#0" to="73541403#8"/>
    <trip id="86" type="veh_passenger" depart="283.16" departLane="best" from="620634304#0" to="-420383159#0"/>
    <trip id="87" type="veh_passenger" depart="286.45" departLane="best" from="218974504#2" to="170403788#2"/>
    <trip id="88" type="veh_passenger" depart="289.74" departLane="best" from="218769254#3" to="-228795467#0"/>
    <trip id="90" type="veh_passenger" depart="296.33" departLane="best" from="233651300#1" to="506162633"/>
    <trip id="91" type="veh_passenger" depart="299.62" departLane="best" departSpeed="max" from="-419812892" to="184083199#1"/>
    <trip id="92" type="veh_passenger" depart="302.91" departLane="best" departSpeed="max" from="913565824#0" to="233651338#0"/>
    <trip id="93" type="veh_passenger" depart="306.20" departLane="best" from="233651270#2" to="517641017#1"/>
    <trip id="94" type="veh_passenger" depart="309.50" departLane="best" departSpeed="max" from="-221975143#2" to="245063608#1"/>
    <trip id="95" type="veh_passenger" depart="312.79" departLane="best" from="220027347#1" to="620634303#5"/>
    <trip id="96" type="veh_passenger" depart="316.08" departLane="best" departSpeed="max" from="-419812892" to="829964067"/>
    <trip id="97" type="veh_passenger" depart="319.37" departLane="best" from="-233651285#1" to="-824132486"/>
    <trip id="98" type="veh_passenger" depart="322.67" departLane="best" from="329995227#0" to="420345572#0"/>
    <trip id="99" type="veh_passenger" depart="325.96" departLane="best" from="170403818#1" to="-327040894#0"/>
    <trip id="100" type="veh_passenger" depart="329.25" departLane="best" from="732213463#11" to="184083122"/>
    <trip id="102" type="veh_passenger" depart="335.84" departLane="best" from="220027347#8" to="769110715#2"/>
    <trip id="103" type="veh_passenger" depart="339.13" departLane="best" from="117784413#1" to="474532059#5"/>
    <trip id="104" type="veh_passenger" depart="342.42" departLane="best" from="170403826#2" to="218835937#3"/>
    <trip id="105" type="veh_passenger" depart="345.71" departLane="best" from="378453707#3" to="184083199#10"/>
    <trip id="106" type="veh_passenger" depart="349.01" departLane="best" from="184083199#13" to="517641017#3"/>
    <trip id="107" type="veh_passenger" depart="352.30" departLane="best" departSpeed="max" from="-233651269" to="218924602#2"/>
    <trip id="108" type="veh_passenger" depart="355.59" departLane="best" from="919985574#1" to="919117822#4"/>
    <trip id="109" type="veh_passenger" depart="358.88" departLane="best" departSpeed="max" from="-233651269" to="170403788#1"/>
    <trip id="111" type="veh_passenger" depart="365.47" departLane="best" departSpeed="max" from="732213463#0" to="620634304#2"/>
    <trip id="112" type="veh_passenger" depart="368.76" departLane="best" departSpeed="max" from="184444067#0" to="-420348549#0"/>
    <trip id="113" type="veh_passenger" depart="372.05" departLane="best" from="350127794#0" to="913565824#3"/>
    <trip id="114" type="veh_passenger" depart="375.35" departLane="best" departSpeed="max" from="378453707#0" to="-170403788#1"/>
    <trip id="115" type="veh_passenger" depart="378.64" departLane="best" from="378453707#1" to="769668047#0"/>
    <trip id="116" type="veh_passenger" depart="381.93" departLane="best" from="-344663909#0" to="-318750942#0"/>
    <trip id="118" type="veh_passenger" depart="388.52" departLane="best" from="469260694#5" to="170207582#1"/>
    <trip id="119" type="veh_passenger" depart="391.81" departLane="best" departSpeed="max" from="378453707#0" to="184083158#3"/>
    <trip id="120" type="veh_passenger" depart="395.10" departLane="best" from="218974504#3" to="732213463#2"/>
    <trip id="122" type="veh_passenger" depart="401.69" departLane="best" from="218919060#2" to="184083183#0"/>
    <trip id="124" type="veh_passenger" depart="408.27" departLane="best" departSpeed="max" from="378453707#0" to="184083158#3"/>
    <trip id="125" type="veh_passenger" depart="411.56" departLane="best" departSpeed="max" from="516417601#0" to="233651289#0"/>
    <trip id="126" type="veh_passenger" depart="414.86" departLane="best" from="218919060#4" to="-170403788#5"/>
    <trip id="127" type="veh_passenger" depart="418.15" departLane="best" from="-233651270#2" to="656122981#1"/>
    <trip id="128" type="veh_passenger" depart="421.44" departLane="best" from="732213463#4" to="233651273"/>
    <trip id="129" type="veh_passenger" depart="424.73" departLane="best" from="620634303#2" to="233652296#0"/>
    <trip id="131" type="veh_passenger" depart="431.32" departLane="best" from="184083199#10" to="732213463#15"/>
    <trip id="132" type="veh_passenger" depart="434.61" departLane="best" from="517641017#4" to="620634303#5"/>
    <trip id="133" type="veh_passenger" depart="437.90" departLane="best" from="732213463#18" to="170403780#1"/>
    <trip id="134" type="veh_passenger" depart="441.20" departLane="best" departSpeed="max" from="183272472" to="-233651338#1"/>
    <trip id="135" type="veh_passenger" depart="444.49" departLane="best" from="517641011#5" to="656122981#2"/>
    <trip id="136" type="veh_passenger" depart="447.78" departLane="best" from="218769254#7" to="350127794#5"/>
    <trip id="137" type="veh_passenger" depart="451.07" departLane="best" departSpeed="max" from="-419812892" to="73550863#1"/>
    <trip id="138" type="veh_passenger" depart="454.37" departLane="best" from="656122980#1" to="908646367#9"/>
    <trip id="139" type="veh_passenger" depart="457.66" departLane="best" from="-170403831#1" to="517641011#4"/>
    <trip id="140" type="veh_passenger" depart="460.95" departLane="best" from="184083199#7" to="73550863#1"/>
    <trip id="141" type="veh_passenger" depart="464.24" departLane="best" from="517641026#0" to="620634304#0"/>
    <trip id="142" type="veh_passenger" depart="467.54" departLane="best" from="517706841#4" to="184083175"/>
    <trip id="143" type="veh_passenger" depart="470.83" departLane="best" departSpeed="max" from="717851360#0" to="620634303#5"/>
    <trip id="144" type="veh_passenger" depart="474.12" departLane="best" from="170403788#3" to="620634303#0"/>
    <trip id="145" type="veh_passenger" depart="477.41" departLane="best" from="218924602#4" to="184083199#12"/>
    <trip id="146" type="veh_passenger" depart="480.71" departLane="best" from="517641017#4" to="170403826#2"/>
    <trip id="147" type="veh_passenger" depart="484.00" departLane="best" from="184083199#6" to="620634304#0"/>
    <trip id="148" type="veh_passenger" depart="487.29" departLane="best" departSpeed="max" from="913565824#0" to="184083183#2"/>
    <trip id="149" type="veh_passenger" depart="490.58" departLane="best" departSpeed="max" from="378453707#0" to="218835937#3"/>
    <trip id="150" type="veh_passenger" depart="493.88" departLane="best" from="919117822#3" to="228795480"/>
    <trip id="151" type="veh_passenger" depart="497.17" departLane="best" from="788411950" to="-318750942#0"/>
    <trip id="152" type="veh_passenger" depart="500.46" departLane="best" departSpeed="max" from="913565824#0" to="-73550864#0"/>
    <trip id="153" type="veh_passenger" depart="503.75" departLane="best" from="908694578#4" to="184083172"/>
    <trip id="154" type="veh_passenger" depart="507.05" departLane="best" from="-233651333#4" to="218923160#4"/>
    <trip id="155" type="veh_passenger" depart="510.34" departLane="best" from="474532059#3" to="184083199#3"/>
    <trip id="156" type="veh_passenger" depart="513.63" departLane="best" from="344663901#3" to="220027347#5"/>
    <trip id="157" type="veh_passenger" depart="516.92" departLane="best" departSpeed="max" from="198564930" to="233651333#2"/>
    <trip id="158" type="veh_passenger" depart="520.22" departLane="best" from="183272488#1" to="474532059#2"/>
    <trip id="160" type="veh_passenger" depart="526.80" departLane="best" departSpeed="max" from="516417601#0" to="419812902"/>
    <trip id="161" type="veh_passenger" depart="530.09" departLane="best" from="184443139#0" to="-233651266"/>
    <trip id="163" type="veh_passenger" depart="536.68" departLane="best" from="184083199#12" to="620634303#5"/>
    <trip id="164" type="veh_passenger" depart="539.97" departLane="best" from="218769254#4" to="184083199#0"/>
    <trip id="165" type="veh_passenger" depart="543.26" departLane="best" from="-329995231#0" to="218919060#5"/>
    <trip id="166" type="veh_passenger" depart="546.56" departLane="best" from="824132484" to="420345572#3"/>
    <trip id="167" type="veh_passenger" depart="549.85" departLane="best" from="732213463#3" to="350127794#1"/>
    <trip id="168" type="veh_passenger" depart="553.14" departLane="best" from="184083187#4" to="233651284#0"/>
    <trip id="170" type="veh_passenger" depart="559.73" departLane="best" from="218919060#5" to="233651338#2"/>
    <trip id="171" type="veh_passenger" depart="563.02" departLane="best" departSpeed="max" from="378453707#0" to="218924602#8"/>
    <trip id="172" type="veh_passenger" depart="566.31" departLane="best" from="218923160#3" to="170403788#2"/>
    <trip id="173" type="veh_passenger" depart="569.60" departLane="best" departSpeed="max" from="218960897#0" to="732213463#16"/>
    <trip id="174" type="veh_passenger" depart="572.90" departLane="best" from="517641017#4" to="-420391197"/>
    <trip id="175" type="veh_passenger" depart="576.19" departLane="best" from="-233651293#1" to="220027347#6"/>
    <trip id="177" type="veh_passenger" depart="582.77" departLane="best" from="620604519" to="517641017#3"/>
    <trip id="178" type="veh_passenger" depart="586.07" departLane="best" from="378453707#3" to="170403818#2"/>
    <trip id="179" type="veh_passenger" depart="589.36" departLane="best" from="-788674832" to="-180190213#0"/>
    <trip id="180" type="veh_passenger" depart="592.65" departLane="best" departSpeed="max" from="180190213#0" to="218960897#2"/>
    <trip id="181" type="veh_passenger" depart="595.95" departLane="best" from="620634304#0" to="-233651275"/>
    <trip id="182" type="veh_passenger" depart="599.24" departLane="best" from="218835937#2" to="360113078#1"/>
    <trip id="184" type="veh_passenger" depart="605.82" departLane="best" from="219096264" to="184083119#0"/>
    <trip id="185" type="veh_passenger" depart="609.12" departLane="best" departSpeed="max" from="378453707#0" to="-170207585#2"/>
    <trip id="186" type="veh_passenger" depart="612.41" departLane="best" departSpeed="max" from="516417601#0" to="517706841#4"/>
    <trip id="187" type="veh_passenger" depart="615.70" departLane="best" from="-233651333#2" to="218923156#4"/>
    <trip id="188" type="veh_passenger" depart="618.99" departLane="best" from="-420391187#1" to="829964067"/>
    <trip id="189" type="veh_passenger" depart="622.29" departLane="best" from="220027347#6" to="-218923156#0"/>
    <trip id="190" type="veh_passenger" depart="625.58" departLane="best" departSpeed="max" from="183272472" to="620634303#5"/>
    <trip id="191" type="veh_passenger" depart="628.87" departLane="best" from="218924602#1" to="616037664"/>
    <trip id="192" type="veh_passenger" depart="632.16" departLane="best" from="378453707#2" to="913565824#4"/>
    <trip id="193" type="veh_passenger" depart="635.46" departLane="best" from="469265198#1" to="220027347#2"/>
    <trip id="194" type="veh_passenger" depart="638.75" departLane="best" from="620634303#1" to="233651284#0"/>
    <trip id="195" type="veh_passenger" depart="642.04" departLane="best" departSpeed="max" from="218960897#0" to="184083158#3"/>
    <trip id="197" type="veh_passenger" depart="648.63" departLane="best" from="360113078#0" to="184083181#5"/>
    <trip id="198" type="veh_passenger" depart="651.92" departLane="best" from="-233651280#1" to="184083187#0"/>
    <trip id="200" type="veh_passenger" depart="658.50" departLane="best" from="233651263#1" to="-355655430#1"/>
    <trip id="203" type="veh_passenger" depart="668.38" departLane="best" from="218769254#8" to="233651269"/>
    <trip id="204" type="veh_passenger" depart="671.67" departLane="best" from="218835937#2" to="170207585#1"/>
    <trip id="205" type="veh_passenger" depart="674.97" departLane="best" from="218919060#1" to="732213463#19"/>
    <trip id="206" type="veh_passenger" depart="678.26" departLane="best" from="245063636#2" to="431903253#1"/>
    <trip id="207" type="veh_passenger" depart="681.55" departLane="best" from="620634304#1" to="517706841#1"/>
    <trip id="208" type="veh_passenger" depart="684.84" departLane="best" from="198564925#3" to="-170207591#0"/>
    <trip id="209" type="veh_passenger" depart="688.14" departLane="best" from="184083202#0-AddedOffRampEdge" to="517641017#3"/>
    <trip id="210" type="veh_passenger" depart="691.43" departLane="best" from="620634304#0" to="782892488#3"/>
    <trip id="211" type="veh_passenger" depart="694.72" departLane="best" from="218919060#1" to="517641017#1"/>
    <trip id="212" type="veh_passenger" depart="698.01" departLane="best" from="233651284#1" to="333555370#2"/>
    <trip id="213" type="veh_passenger" depart="701.31" departLane="best" from="218923160#0" to="-183272472"/>
    <trip id="214" type="veh_passenger" depart="704.60" departLane="best" from="184083199#9" to="420348549#0"/>
    <trip id="215" type="veh_passenger" depart="707.89" departLane="best" from="218769254#5" to="-420383159#0"/>
    <trip id="216" type="veh_passenger" depart="711.18" departLane="best" departSpeed="max" from="218960897#0" to="-329995231#1"/>
    <trip id="217" type="veh_passenger" depart="714.48" departLane="best" from="350127794#8" to="-180190213#1"/>
    <trip id="218" type="veh_passenger" depart="717.77" departLane="best" from="215843535#3" to="233651324#0"/>
    <trip id="219" type="veh_passenger" depart="721.06" departLane="best" from="-170403831#4" to="378453707#2"/>
    <trip id="220" type="veh_passenger" depart="724.35" departLane="best" from="-344663909#3" to="218924602#4"/>
    <trip id="221" type="veh_passenger" depart="727.65" departLane="best" from="-219053199#6" to="218769254#3"/>
    <trip id="222" type="veh_passenger" depart="730.94" departLane="best" from="117784422" to="184083199#8"/>
    <trip id="223" type="veh_passenger" depart="734.23" departLane="best" departSpeed="max" from="516417601#0" to="218769254#3"/>
    <trip id="224" type="veh_passenger" depart="737.52" departLane="best" departSpeed="max" from="516417601#0" to="620634303#3"/>
    <trip id="225" type="veh_passenger" depart="740.82" departLane="best" from="183272478" to="-233651294#0"/>
    <trip id="226" type="veh_passenger" depart="744.11" departLane="best" from="-170403810#3" to="228795484#1"/>
    <trip id="227" type="veh_passenger" depart="747.40" departLane="best" from="921796625" to="184443141#2"/>
    <trip id="228" type="veh_passenger" depart="750.69" departLane="best" departSpeed="max" from="378453707#0" to="616037664"/>
    <trip id="229" type="veh_passenger" depart="753.99" departLane="best" departSpeed="max" from="378453707#0" to="517641017#4"/>
    <trip id="230" type="veh_passenger" depart="757.28" departLane="best" from="908646367#3-AddedOnRampEdge" to="117914848#2"/>
    <trip id="231" type="veh_passenger" depart="760.57" departLane="best" from="-170403810#4" to="-419752064"/>
    <trip id="232" type="veh_passenger" depart="763.86" departLane="best" from="-329995230#1" to="419812902"/>
    <trip id="233" type="veh_passenger" depart="767.16" departLane="best" from="233651327#2" to="170403804#0"/>
    <trip id="234" type="veh_passenger" depart="770.45" departLane="best" departSpeed="max" from="420361195#0" to="517706841#2"/>
    <trip id="235" type="veh_passenger" depart="773.74" departLane="best" from="-420345572#5" to="344663901#0"/>
    <trip id="236" type="veh_passenger" depart="777.03" departLane="best" departSpeed="max" from="516417601#0" to="-318750942#0"/>
    <trip id="237" type="veh_passenger" depart="780.33" departLane="best" from="620604519" to="908646367#10"/>
    <trip id="238" type="veh_passenger" depart="783.62" departLane="best" from="-233651333#4" to="-180190213#0"/>
    <trip id="239" type="veh_passenger" depart="786.91" departLane="best" from="184083199#11" to="420345572#3"/>
    <trip id="240" type="veh_passenger" depart="790.20" departLane="best" from="908694578#1" to="218835937#3"/>
    <trip id="241" type="veh_passenger" depart="793.50" departLane="best" from="469260694#1" to="-233651285#0"/>
    <trip id="242" type="veh_passenger" depart="796.79" departLane="best" departSpeed="max" from="419752064" to="355655430#1"/>
    <trip id="244" type="veh_passenger" depart="803.37" departLane="best" from="620634304#0" to="333555370#2"/>
    <trip id="245" type="veh_passenger" depart="806.67" departLane="best" from="-318750942#3" to="908694578#5"/>
    <trip id="246" type="veh_passenger" depart="809.96" departLane="best" from="517641011#6" to="184443139#2"/>
    <trip id="247" type="veh_passenger" depart="813.25" departLane="best" from="220027347#11" to="184083250#1"/>
    <trip id="248" type="veh_passenger" depart="816.54" departLane="best" from="-233651332#4" to="829964067"/>
    <trip id="250" type="veh_passenger" depart="823.13" departLane="best" from="474532059#5" to="908646367#2"/>
    <trip id="251" type="veh_passenger" depart="826.42" departLane="best" from="228795483" to="218974504#2"/>
    <trip id="252" type="veh_passenger" depart="829.71" departLane="best" from="218923160#0" to="517641011#2"/>
    <trip id="254" type="veh_passenger" depart="836.30" departLane="best" departSpeed="max" from="732213463#0" to="184083119#0"/>
    <trip id="256" type="veh_passenger" depart="842.88" departLane="best" from="198564925#3" to="-183272472"/>
    <trip id="257" type="veh_passenger" depart="846.18" departLane="best" from="620634304#0" to="-769668047#0"/>
    <trip id="259" type="veh_passenger" depart="852.76" departLane="best" departSpeed="max" from="184083202#0" to="620634304#2"/>
    <trip id="260" type="veh_passenger" depart="856.05" departLane="best" departSpeed="max" from="-170403780#1" to="782892488#0"/>
    <trip id="261" type="veh_passenger" depart="859.35" departLane="best" from="-233651294#0" to="506162633"/>
    <trip id="262" type="veh_passenger" depart="862.64" departLane="best" from="218974504#3" to="517641017#5"/>
    <trip id="263" type="veh_passenger" depart="865.93" departLane="best" departSpeed="max" from="419752064" to="378453707#2"/>
    <trip id="264" type="veh_passenger" depart="869.22" departLane="best" from="219053199#2" to="616037664"/>
    <trip id="265" type="veh_passenger" depart="872.52" departLane="best" from="-233651317#0" to="170403810#3"/>
    <trip id="266" type="veh_passenger" depart="875.81" departLane="best" from="419752069" to="184083199#12"/>
    <trip id="267" type="veh_passenger" depart="879.10" departLane="best" from="245063608#1" to="218960897#1"/>
    <trip id="268" type="veh_passenger" depart="882.39" departLane="best" from="228795468#1" to="218923156#5"/>
    <trip id="270" type="veh_passenger" depart="888.98" departLane="best" departSpeed="max" from="183272472" to="-327040894#1"/>
    <trip id="271" type="veh_passenger" depart="892.27" departLane="best" from="228795480" to="517641026#1"/>
    <trip id="272" type="veh_passenger" depart="895.56" departLane="best" from="-517641007#0" to="170403791"/>
    <trip id="273" type="veh_passenger" depart="898.86" departLane="best" from="218974504#1" to="517641007#1"/>
    <trip id="274" type="veh_passenger" depart="902.15" departLane="best" from="913565824#5" to="221975143#0"/>
    <trip id="275" type="veh_passenger" depart="905.44" departLane="best" from="184083181#5" to="-233651333#3"/>
    <trip id="278" type="veh_passenger" depart="915.32" departLane="best" from="228795478#0" to="184083181#5"/>
    <trip id="279" type="veh_passenger" depart="918.61" departLane="best" from="913565824#3" to="233651290"/>
    <trip id="280" type="veh_passenger" depart="921.90" departLane="best" from="420348552#2" to="-329995230#2"/>
    <trip id="281" type="veh_passenger" depart="925.20" departLane="best" from="656122990" to="219053199#7"/>
    <trip id="282" type="veh_passenger" depart="928.49" departLane="best" departSpeed="max" from="717851360#0" to="233651332#2"/>