<?xml version="1.0" encoding="UTF-8"?>

<!-- generated on 09/28/21 19:39:04 by Eclipse SUMO polyconvert Version 1.7.0
<configuration xmlns:xsi="http://www.w3.org/2001/XMLSchema-instance" xsi:noNamespaceSchemaLocation="http://sumo.dlr.de/xsd/polyconvertConfiguration.xsd">

    <input>
        <net-file value="osm.net.xml"/>
        <osm-files value="osm_bbox.osm.xml"/>
        <osm.keep-full-type value="true"/>
        <type-file value="C:\Program%20Files%20(x86)\Eclipse\Sumo\data\typemap\osmPolyconvert.typ.xml"/>
    </input>

    <output>
        <output-file value="osm.poly.xml"/>
    </output>

    <processing>
        <poi-layer-offset value="5"/>
    </processing>

    <report>
        <verbose value="true"/>
    </report>

</configuration>
-->

<additional xmlns:xsi="http://www.w3.org/2001/XMLSchema-instance" xsi:noNamespaceSchemaLocation="http://sumo.dlr.de/xsd/additional_file.xsd">
    <location netOffset="-316366.01,-4157140.93" convBoundary="-18583.08,-10588.98,17255.74,22684.79" origBoundary="126.704907,37.450867,127.118967,37.743405" projParameter="+proj=utm +zone=52 +ellps=WGS84 +datum=WGS84 +units=m +no_defs"/>

    <poly id="141779172" type="building.yes" color="255,230,230" fill="1" layer="-1.00" shape="5019.443657,2888.583147 5034.021515,2888.080541 5032.670921,2849.155057 5018.092994,2849.657663 5019.443657,2888.583147"/>
    <poly id="141957146" type="building.yes" color="255,230,230" fill="1" layer="-1.00" shape="5326.226432,2873.634866 5354.315850,2873.586187 5354.276373,2854.892440 5326.195962,2854.952023 5326.226432,2873.634866"/>
    <poly id="141957147" type="amenity.post_office" color="237,199,199" fill="1" layer="-1.00" shape="5094.699289,2888.861379 5044.251393,2892.067694 5041.573816,2850.195625 5092.021968,2846.989303 5094.699289,2888.861379"/>
    <poly id="141957147#1" type="building.public" color="255,230,230" fill="1" layer="-1.00" shape="5094.699289,2888.861379 5044.251393,2892.067694 5041.573816,2850.195625 5092.021968,2846.989303 5094.699289,2888.861379"/>
    <poly id="141957150" type="building.yes" color="255,230,230" fill="1" layer="-1.00" shape="5116.714936,2877.164121 5116.544312,2853.632989 5165.639691,2853.264861 5165.810176,2876.795988 5116.714936,2877.164121"/>
    <poly id="141957163" type="historic.archaeological_site" color="128,255,128" fill="1" layer="-1.00" shape="5492.406405,2833.563384 5489.773536,2824.938714 5583.674577,2824.010619 5583.296972,2882.578008 5560.980983,2882.779506 5492.406405,2833.563384"/>
    <poly id="141957167" type="building.yes" color="255,230,230" fill="1" layer="-1.00" shape="5399.125056,2854.694670 5398.491746,2819.050902 5404.162517,2818.951263 5404.076474,2814.124046 5410.029880,2814.018339 5409.928106,2808.458775 5445.136292,2807.835624 5445.756766,2842.891291 5440.200831,2842.988435 5440.286854,2847.815652 5434.218655,2847.923805 5434.324215,2854.071656 5399.125056,2854.694670"/>
    <poly id="141957172" type="building.commercial" color="255,230,230" fill="1" layer="-1.00" shape="5038.819603,2945.537628 5072.076807,2945.021475 5072.590741,2978.747347 5093.613709,2978.416934 5094.173670,3015.105867 5073.450844,3015.418721 5073.790369,3037.758387 5040.233010,3038.269916 5038.819603,2945.537628"/>
    <poly id="141957173" type="building.yes" color="255,230,230" fill="1" layer="-1.00" shape="5245.298418,2837.630376 5297.141644,2836.016098 5299.137355,2879.112877 5246.720546,2880.750594 5245.298418,2837.630376"/>
    <poly id="141957175" type="building.yes" color="255,230,230" fill="1" layer="-1.00" shape="5200.776543,2875.621921 5199.667308,2856.507112 5216.734700,2856.717270 5216.004520,2849.883464 5222.676417,2849.906485 5224.243411,2874.695320 5200.776543,2875.621921"/>
    <poly id="142096702" type="building.yes" color="255,230,230" fill="1" layer="-1.00" shape="4885.339875,3013.031504 4925.883552,3013.601083 4926.384437,2979.020720 4895.263005,2978.592234 4885.597726,2995.063974 4885.339875,3013.031504"/>
    <poly id="142096703" type="building.yes" color="255,230,230" fill="1" layer="-1.00" shape="5534.967923,2985.292232 5537.731878,2985.210685 5542.731058,2985.114452 5548.299282,2985.594374 5553.356271,2984.486689 5559.007868,2983.499457 5564.676012,2980.813377 5573.424718,2976.329371 5576.284400,2976.179175 5578.931313,2972.703160 5579.210044,2969.222473 5584.398168,2956.522248 5587.012042,2945.331551 5586.359555,2937.574655 5586.016707,2929.011820 5581.205269,2925.917925 5576.924095,2925.710087 5571.205517,2928.930101 5571.103971,2925.846122 5560.952591,2930.027201 5555.695691,2932.937579 5549.352136,2937.503181 5544.600272,2942.123425 5539.900656,2947.530742 5535.597247,2954.106292 5532.477327,2961.067182 5530.882791,2966.640963 5529.401832,2973.389043 5533.254025,2973.783687 5532.739741,2976.581154 5531.550188,2978.793650 5531.471008,2982.925031 5534.967923,2985.292232"/>
    <poly id="142096704" type="building.commercial" color="255,230,230" fill="1" layer="-1.00" shape="5427.588212,2716.971030 5425.669752,2676.203881 5443.218999,2675.382855 5443.398146,2679.197852 5446.805776,2679.046948 5446.969416,2682.551442 5450.297315,2682.391151 5451.546314,2708.863111 5448.659566,2708.991724 5448.828210,2712.729237 5445.473826,2712.890099 5445.622675,2716.117378 5427.588212,2716.971030"/>
    <poly id="142096705" type="building.yes" color="255,230,230" fill="1" layer="-1.00" shape="4885.452629,2817.745382 4916.046404,2818.262943 4915.729268,2836.764603 4915.204850,2867.382290 4884.592904,2867.653329 4885.241091,2830.072427 4885.452629,2817.745382"/>
    <poly id="142096706" type="building.yes" color="255,230,230" fill="1" layer="-1.00" shape="5340.909665,2818.834055 5338.299034,2799.740416 5381.823800,2793.842755 5384.434330,2812.936403 5340.909665,2818.834055"/>
    <poly id="181574569" type="building.yes" color="255,230,230" fill="1" layer="-1.00" shape="4831.514532,2436.821901 4833.469269,2445.516524 4844.198716,2443.131634 4842.243751,2434.425912 4831.514532,2436.821901"/>
    <poly id="181574569#1" type="historic.yes" color="128,255,128" fill="1" layer="-1.00" shape="4831.514532,2436.821901 4833.469269,2445.516524 4844.198716,2443.131634 4842.243751,2434.425912 4831.514532,2436.821901"/>
    <poly id="181574570" type="building.yes" color="255,230,230" fill="1" layer="-1.00" shape="4884.062902,2428.029631 4886.759114,2438.739832 4889.817272,2451.074132 4872.623821,2455.307846 4873.978500,2460.762716 4898.080927,2454.825967 4884.329366,2399.382454 4860.191451,2405.319997 4843.410899,2409.444958 4843.952637,2411.620246 4844.726447,2414.723046 4861.523697,2410.553322 4878.619601,2406.299489 4884.062902,2428.029631"/>
    <poly id="184444066" type="leisure.park" color="207,245,201" fill="1" layer="-2.00" shape="5934.805575,2925.251525 5933.969365,2976.135416 5935.601884,2978.509417 5932.960135,3029.665120 5932.592112,3058.680604 5942.595018,3073.142181 5957.159354,3078.214301 5960.543224,3080.262158 5967.916472,3082.513197 5988.943037,3078.244012 6005.318361,3068.446149 6015.962807,3043.551214 6020.891587,3021.187656 6021.146884,3007.938391 6017.807338,2948.951223 6013.790850,2920.662421 6002.828947,2919.187560 5973.742729,2919.299810 5969.523160,2919.079349 5940.380652,2918.626757 5934.805575,2925.251525"/>
    <poly id="184444066#1" type="tourism.attraction" color="207,245,201" fill="1" layer="-2.00" shape="5934.805575,2925.251525 5933.969365,2976.135416 5935.601884,2978.509417 5932.960135,3029.665120 5932.592112,3058.680604 5942.595018,3073.142181 5957.159354,3078.214301 5960.543224,3080.262158 5967.916472,3082.513197 5988.943037,3078.244012 6005.318361,3068.446149 6015.962807,3043.551214 6020.891587,3021.187656 6021.146884,3007.938391 6017.807338,2948.951223 6013.790850,2920.662421 6002.828947,2919.187560 5973.742729,2919.299810 5969.523160,2919.079349 5940.380652,2918.626757 5934.805575,2925.251525"/>
    <poly id="196076053" type="aeroway.helipad" color="grey" fill="1" layer="-2.00" shape="4895.482541,2853.863945 4907.539008,2854.037124 4907.814311,2834.415128 4895.757815,2834.241947 4895.482541,2853.863945"/>
    <poly id="198561926" type="amenity.townhall" color="237,199,199" fill="1" layer="-1.00" shape="5043.129387,2544.831295 5042.945707,2519.468728 5042.653680,2496.051227 5097.406202,2495.660950 5104.646777,2495.405222 5107.682086,2495.606336 5148.898528,2494.886020 5149.266426,2544.023620 5044.622564,2544.821353 5043.129387,2544.831295"/>
    <poly id="198561926#1" type="building.yes" color="255,230,230" fill="1" layer="-1.00" shape="5043.129387,2544.831295 5042.945707,2519.468728 5042.653680,2496.051227 5097.406202,2495.660950 5104.646777,2495.405222 5107.682086,2495.606336 5148.898528,2494.886020 5149.266426,2544.023620 5044.622564,2544.821353 5043.129387,2544.831295"/>
    <poly id="198561929" type="amenity.library" color="237,199,199" fill="1" layer="-1.00" shape="5007.100999,2506.596907 5006.931981,2479.047061 5007.917143,2477.194131 5019.310528,2463.782660 5020.851931,2463.138902 5038.505492,2463.036385 5047.916301,2463.022525 5057.326869,2462.997580 5067.893795,2462.914452 5076.122698,2462.593023 5077.113866,2463.071250 5087.313732,2475.085381 5090.487055,2478.824840 5078.520868,2489.029154 5071.562855,2481.474595 5070.243692,2481.358671 5060.996192,2481.568815 5061.072409,2487.572989 5034.910720,2487.747604 5034.825412,2481.732524 5027.538989,2481.911590 5027.032192,2482.177831 5023.094101,2486.014860 5022.920561,2486.573663 5023.115903,2506.318710 5007.100999,2506.596907"/>
    <poly id="198561929#1" type="building.civic" color="255,230,230" fill="1" layer="-1.00" shape="5007.100999,2506.596907 5006.931981,2479.047061 5007.917143,2477.194131 5019.310528,2463.782660 5020.851931,2463.138902 5038.505492,2463.036385 5047.916301,2463.022525 5057.326869,2462.997580 5067.893795,2462.914452 5076.122698,2462.593023 5077.113866,2463.071250 5087.313732,2475.085381 5090.487055,2478.824840 5078.520868,2489.029154 5071.562855,2481.474595 5070.243692,2481.358671 5060.996192,2481.568815 5061.072409,2487.572989 5034.910720,2487.747604 5034.825412,2481.732524 5027.538989,2481.911590 5027.032192,2482.177831 5023.094101,2486.014860 5022.920561,2486.573663 5023.115903,2506.318710 5007.100999,2506.596907"/>
    <poly id="223158459" type="building.yes" color="255,230,230" fill="1" layer="-1.00" shape="5443.922899,2945.917422 5430.119762,2946.280555 5419.127785,2957.806730 5422.879847,2988.498924 5426.984617,2987.900076 5429.213211,3019.657424 5487.763117,3016.457020 5485.325545,2980.718793 5482.052918,2980.567053 5481.608713,2973.049915 5457.615575,2951.107332 5448.908525,2952.593217 5443.922899,2945.917422"/>
    <poly id="223165014" type="building.yes" color="255,230,230" fill="1" layer="-1.00" shape="5170.812848,2518.271302 5169.223296,2481.349230 5176.657006,2481.033904 5175.754949,2460.049629 5191.098891,2459.386546 5192.318130,2487.724167 5181.821187,2488.183078 5183.102047,2517.740519 5170.812848,2518.271302"/>
    <poly id="223165015" type="amenity.bank" color="237,199,199" fill="1" layer="-1.00" shape="5370.410490,2454.321679 5407.454523,2453.115045 5426.848101,2466.963601 5437.101268,2482.307375 5433.233213,2492.292810 5427.778486,2499.992160 5372.282206,2502.361171 5370.410490,2454.321679"/>
    <poly id="223165015#1" type="building.yes" color="255,230,230" fill="1" layer="-1.00" shape="5370.410490,2454.321679 5407.454523,2453.115045 5426.848101,2466.963601 5437.101268,2482.307375 5433.233213,2492.292810 5427.778486,2499.992160 5372.282206,2502.361171 5370.410490,2454.321679"/>
    <poly id="223165016" type="amenity.restaurant" color="237,199,199" fill="1" layer="-1.00" shape="5586.380099,2530.534547 5610.739772,2529.578835 5611.859714,2557.885265 5587.491291,2558.841166 5586.380099,2530.534547"/>
    <poly id="223165016#1" type="building.yes" color="255,230,230" fill="1" layer="-1.00" shape="5586.380099,2530.534547 5610.739772,2529.578835 5611.859714,2557.885265 5587.491291,2558.841166 5586.380099,2530.534547"/>
    <poly id="223166193" type="building.commercial" color="255,230,230" fill="1" layer="-1.00" shape="5019.081008,2824.958134 5019.560139,2827.101475 5020.574213,2829.055676 5022.049706,2830.689106 5024.110268,2831.999101 5026.457507,2832.670148 5029.438509,2832.816889 5075.647959,2825.627551 5073.059894,2808.431802 5027.566231,2815.217190 5024.924209,2816.040068 5022.730011,2817.141938 5020.936856,2818.812443 5019.792996,2820.679893 5019.157830,2822.780619 5019.081008,2824.958134"/>
    <poly id="223418691" type="building.church" color="255,230,230" fill="1" layer="-1.00" shape="4849.619088,2560.156124 4851.457841,2564.290601 4858.551895,2580.201359 4860.084103,2583.643059 4866.132608,2580.970513 4864.489152,2577.286980 4885.076736,2568.184324 4890.304061,2579.894617 4893.173152,2578.533944 4897.908269,2576.422584 4902.311577,2574.495996 4904.764122,2573.488444 4899.722071,2562.173799 4912.939664,2556.338376 4909.253145,2548.058492 4905.566859,2539.789706 4891.701850,2545.927722 4886.622764,2534.536173 4884.414890,2535.416344 4880.004405,2537.420804 4875.260437,2539.532364 4872.906238,2540.593312 4878.180388,2552.424705 4857.417555,2561.597760 4855.588593,2557.507476 4849.619088,2560.156124"/>
    <poly id="223418692" type="building.public" color="255,230,230" fill="1" layer="-1.00" shape="4907.417633,2618.313968 4907.003475,2610.984909 4898.381911,2600.047120 4926.283269,2574.401428 4943.278197,2573.269358 4943.659411,2590.967769 4957.372938,2590.927729 4956.460951,2654.435878 4935.884971,2654.634848 4935.345892,2617.712328 4907.417633,2618.313968"/>
    <poly id="233593617" type="building.yes" color="255,230,230" fill="1" layer="-1.00" shape="5034.828373,2633.332126 5040.652538,2633.373261 5059.007549,2632.622890 5059.906191,2623.056409 5064.331251,2622.961158 5065.542200,2576.997825 5059.673835,2576.957622 5059.735072,2567.486876 5034.838827,2567.323430 5034.775701,2576.294658 5030.188764,2576.260193 5029.842654,2623.392765 5034.906757,2623.428057 5034.828373,2633.332126"/>
    <poly id="233593618" type="building.yes" color="255,230,230" fill="1" layer="-1.00" shape="5102.737967,2667.039373 5150.197830,2665.762803 5148.623918,2629.162324 5136.911143,2630.191425 5136.556638,2626.036059 5129.784538,2626.703535 5128.940191,2623.602233 5107.052663,2624.861418 5108.468278,2630.281702 5100.918928,2630.965928 5102.737967,2667.039373"/>
    <poly id="233593620" type="building.yes" color="255,230,230" fill="1" layer="-1.00" shape="5231.965500,2462.115582 5239.295620,2461.913555 5239.868805,2482.405341 5227.089705,2482.757849 5227.025752,2480.194823 5223.201713,2480.299260 5223.085970,2476.149861 5205.325986,2476.642821 5204.819065,2458.414274 5206.973987,2458.356827 5206.743918,2450.124605 5231.613513,2449.445460 5231.965500,2462.115582"/>
    <poly id="233593621" type="building.yes" color="255,230,230" fill="1" layer="-1.00" shape="5294.647834,2496.813835 5306.034700,2496.646774 5306.111949,2501.884927 5346.615504,2501.303029 5346.250615,2476.099823 5332.567008,2476.305087 5332.531979,2473.441705 5328.989627,2473.495635 5328.950304,2470.432522 5325.849582,2470.476961 5325.810726,2467.846788 5294.229372,2468.303587 5294.647834,2496.813835"/>
    <poly id="233593623" type="building.yes" color="255,230,230" fill="1" layer="-1.00" shape="5146.698153,2601.261746 5156.326983,2599.888949 5155.596268,2590.157715 5145.485463,2593.361498 5146.698153,2601.261746"/>
    <poly id="233593624" type="building.yes" color="255,230,230" fill="1" layer="-1.00" shape="5106.618669,2587.448214 5100.036729,2578.886425 5105.376054,2572.410466 5113.385992,2580.808314 5106.618669,2587.448214"/>
    <poly id="233593625" type="building.yes" color="255,230,230" fill="1" layer="-1.00" shape="5127.855390,2604.398095 5142.579599,2603.692736 5142.662892,2595.242843 5130.259698,2594.987951 5127.855390,2604.398095"/>
    <poly id="233593626" type="building.yes" color="255,230,230" fill="1" layer="-1.00" shape="5265.248883,2970.683539 5264.123591,2922.050684 5318.951539,2920.783080 5319.223953,2932.633421 5310.409979,2932.845098 5310.467436,2970.455098 5265.248883,2970.683539"/>
    <poly id="233593627" type="building.yes" color="255,230,230" fill="1" layer="-1.00" shape="5153.467422,2391.800858 5138.307391,2364.462538 5145.852930,2360.303732 5147.507275,2363.265495 5168.694162,2351.586299 5171.661228,2356.828901 5175.424906,2362.132079 5168.704322,2385.334060 5153.467422,2391.800858"/>
    <poly id="233593628" type="building.yes" color="255,230,230" fill="1" layer="-1.00" shape="5277.215591,2501.862234 5266.859750,2502.306903 5266.102537,2484.760921 5252.506782,2485.352974 5253.251613,2502.732704 5231.542329,2503.665771 5232.368831,2522.786650 5278.029576,2520.816862 5277.215591,2501.862234"/>
    <poly id="233593629" type="building.yes" color="255,230,230" fill="1" layer="-1.00" shape="5142.050060,2572.920182 5155.596737,2572.106969 5155.001374,2562.506039 5141.178486,2562.803434 5142.050060,2572.920182"/>
    <poly id="233593630" type="building.yes" color="255,230,230" fill="1" layer="-1.00" shape="5359.185922,2875.291034 5385.369268,2874.539637 5383.973342,2843.708014 5359.083216,2844.609238 5359.185922,2875.291034"/>
    <poly id="233593632" type="building.yes" color="255,230,230" fill="1" layer="-1.00" shape="5177.129373,2600.351742 5211.298875,2599.872108 5209.737342,2575.749242 5176.370541,2576.988701 5177.129373,2600.351742"/>
    <poly id="233593633" type="building.yes" color="255,230,230" fill="1" layer="-1.00" shape="5104.026344,2606.598268 5119.012659,2605.754010 5104.995423,2590.857947 5098.270817,2593.733587 5104.026344,2606.598268"/>
    <poly id="233593634" type="building.yes" color="255,230,230" fill="1" layer="-1.00" shape="5229.900972,2576.914190 5228.009409,2545.660281 5290.933116,2541.876166 5292.824679,2573.141178 5229.900972,2576.914190"/>
    <poly id="233593635" type="building.yes" color="255,230,230" fill="1" layer="-1.00" shape="5066.878775,2679.733991 5080.071455,2674.387823 5082.421532,2668.620061 5081.450471,2647.726072 5070.591576,2646.139181 5066.878775,2679.733991"/>
    <poly id="233593636" type="building.yes" color="255,230,230" fill="1" layer="-1.00" shape="5130.716589,2591.991866 5155.596268,2590.157715 5155.114769,2573.937953 5122.806906,2575.931937 5123.297754,2586.833970 5130.716589,2591.991866"/>
    <poly id="233593637" type="building.yes" color="255,230,230" fill="1" layer="-1.00" shape="5108.499530,2590.260777 5116.540252,2600.090035 5124.407850,2601.874570 5126.019879,2597.943320 5120.110463,2595.994532 5111.818617,2586.814552 5108.499530,2590.260777"/>
    <poly id="233593638" type="building.yes" color="255,230,230" fill="1" layer="-1.00" shape="5082.485482,2592.763361 5097.680442,2589.705413 5095.352873,2578.454362 5090.192427,2564.500051 5080.300490,2565.145899 5078.262340,2566.521924 5082.485482,2592.763361"/>
    <poly id="233593639" type="building.yes" color="255,230,230" fill="1" layer="-1.00" shape="5246.699694,2465.972845 5251.900912,2465.805503 5252.364327,2480.371551 5286.027042,2479.314782 5285.264723,2455.363459 5246.400688,2456.587570 5246.699694,2465.972845"/>
    <poly id="233593642" type="building.yes" color="255,230,230" fill="1" layer="-1.00" shape="5066.800786,2645.732319 5050.798508,2641.658457 5046.335352,2664.612162 5053.413959,2666.280397 5052.711716,2670.192078 5055.863940,2670.901314 5055.200871,2676.632769 5062.268239,2677.779490 5066.800786,2645.732319"/>
    <poly id="233593643" type="building.residential" color="255,230,230" fill="1" layer="-1.00" shape="5200.949900,2992.126515 5211.204635,2991.939233 5211.534963,3009.350095 5258.532862,3008.461412 5257.059250,2930.484172 5225.518076,2931.084786 5225.749089,2943.058137 5200.028557,2943.544765 5200.949900,2992.126515"/>
    <poly id="233593644" type="building.yes" color="255,230,230" fill="1" layer="-1.00" shape="5157.322048,2399.688676 5161.511592,2407.535987 5163.071390,2410.211153 5165.072821,2412.876818 5167.128680,2415.197173 5171.869188,2419.080570 5175.855102,2420.748838 5180.622587,2422.189371 5185.083318,2422.926021 5190.184059,2423.426882 5199.929828,2423.372688 5199.208745,2408.745572 5197.780901,2379.746363 5175.424906,2362.132079 5168.704322,2385.334060 5153.467422,2391.800858 5157.322048,2399.688676"/>
    <poly id="233593644#1" type="tourism.hotel" color="207,245,201" fill="1" layer="-2.00" shape="5157.322048,2399.688676 5161.511592,2407.535987 5163.071390,2410.211153 5165.072821,2412.876818 5167.128680,2415.197173 5171.869188,2419.080570 5175.855102,2420.748838 5180.622587,2422.189371 5185.083318,2422.926021 5190.184059,2423.426882 5199.929828,2423.372688 5199.208745,2408.745572 5197.780901,2379.746363 5175.424906,2362.132079 5168.704322,2385.334060 5153.467422,2391.800858 5157.322048,2399.688676"/>
    <poly id="233593645" type="building.yes" color="255,230,230" fill="1" layer="-1.00" shape="5274.218043,3012.209409 5271.426905,3009.793833 5270.439590,2988.123098 5273.389522,2985.595175 5294.611549,2983.840022 5297.793923,2986.369308 5299.046127,3008.034348 5296.366883,3010.822873 5274.218043,3012.209409"/>
    <poly id="233593646" type="building.yes" color="255,230,230" fill="1" layer="-1.00" shape="5112.290987,2578.378487 5107.580597,2571.785757 5107.363798,2564.585667 5139.175648,2560.892695 5139.301458,2563.454392 5136.703744,2563.876627 5136.962537,2573.029644 5118.601195,2574.723582 5118.800539,2577.827661 5112.290987,2578.378487"/>
    <poly id="246436064" type="building.yes" color="255,230,230" fill="1" layer="-1.00" shape="6717.648065,2546.441510 6717.841475,2556.339650 6726.859656,2556.158439 6728.333942,2547.390363 6717.648065,2546.441510"/>
    <poly id="256815224" type="building.commercial" color="255,230,230" fill="1" layer="-1.00" shape="5344.436012,2730.058852 5413.888582,2723.815102 5411.814653,2699.259185 5341.955827,2705.522772 5344.436012,2730.058852"/>
    <poly id="259850108" type="amenity.fountain" color="237,199,199" fill="1" layer="-1.00" shape="4965.996159,3024.515490 4983.507937,3024.449145 4976.668553,2958.388088 4967.711368,2958.514405 4965.996159,3024.515490"/>
    <poly id="259850109" type="tourism.attraction" color="207,245,201" fill="0" layer="-2.00" shape="4958.273712,3118.465940 4958.861393,3027.611029 4959.057478,2997.744208 4963.575437,2927.719575 4963.958877,2921.727696 4979.403175,2920.839984 4980.135201,2926.929951 4990.155680,3027.869499 4991.877144,3176.723548"/>
    <poly id="263587835" type="amenity.studio" color="237,199,199" fill="1" layer="-1.00" shape="4854.886613,2688.540596 4874.657634,2723.572211 4899.314512,2709.774827 4879.534737,2674.743346 4854.886613,2688.540596"/>
    <poly id="263587835#1" type="building.yes" color="255,230,230" fill="1" layer="-1.00" shape="4854.886613,2688.540596 4874.657634,2723.572211 4899.314512,2709.774827 4879.534737,2674.743346 4854.886613,2688.540596"/>
    <poly id="263587971" type="building.commercial" color="255,230,230" fill="1" layer="-1.00" shape="4823.660640,2743.576873 4856.238678,2726.267113 4848.831762,2710.185482 4839.601309,2706.665470 4811.461707,2720.815644 4823.660640,2743.576873"/>
    <poly id="263588265" type="building.commercial" color="255,230,230" fill="1" layer="-1.00" shape="4859.322548,2660.658348 4867.132790,2626.975102 4902.919740,2670.809172 4859.322548,2660.658348"/>
    <poly id="26658456" type="building.yes" color="255,230,230" fill="1" layer="-1.00" shape="6575.482928,2818.689827 6576.004561,2811.251984 6577.381039,2790.874089 6580.621932,2743.169632 6580.743299,2739.747870 6578.262614,2739.856322 6578.874141,2724.623515 6589.273868,2725.422867 6608.039589,2726.543253 6608.242969,2726.550014 6603.324169,2820.682199 6591.916677,2820.270684 6591.659344,2823.118086 6587.242375,2822.757207 6587.562548,2819.542124 6575.482928,2818.689827"/>
    <poly id="26658456#1" type="shop.mall" color="237,199,255" fill="1" layer="-1.00" shape="6575.482928,2818.689827 6576.004561,2811.251984 6577.381039,2790.874089 6580.621932,2743.169632 6580.743299,2739.747870 6578.262614,2739.856322 6578.874141,2724.623515 6589.273868,2725.422867 6608.039589,2726.543253 6608.242969,2726.550014 6603.324169,2820.682199 6591.916677,2820.270684 6591.659344,2823.118086 6587.242375,2822.757207 6587.562548,2819.542124 6575.482928,2818.689827"/>
    <poly id="26658458" type="historic.castle" color="128,255,128" fill="1" layer="-1.00" shape="4676.818603,2365.156630 4679.543145,2360.779438 4681.590361,2350.810676 4692.513574,2332.002526 4692.777817,2331.552773 4697.388113,2323.649095 4700.472541,2321.206885 4707.081080,2319.909822 4753.617164,2322.414376 4844.454716,2333.222906 4862.619466,2333.863906 4875.166983,2332.594429 4888.355445,2330.312043 4925.951178,2324.328936 4927.177886,2329.997494 4928.523493,2336.262962 4929.877930,2342.528241 4931.301365,2349.125073 4940.053627,2347.249159 4952.001787,2391.596953 4952.665755,2506.126148 4910.900753,2506.814853 4867.966497,2507.373545 4840.207537,2512.978445 4811.359879,2520.138891 4780.197197,2533.044337 4773.076609,2535.995390 4759.996930,2554.372584 4746.009556,2555.240351 4729.321819,2556.277388 4719.060583,2584.052223 4710.431175,2601.034674 4697.671521,2613.343743 4650.756497,2614.500115 4643.880022,2610.330051 4662.034534,2529.009518 4664.924376,2511.407042 4664.341060,2501.161977 4660.982332,2441.320447 4660.929064,2408.128562 4660.060345,2383.424598 4661.015788,2380.606447 4663.519546,2377.055512 4670.169069,2371.106068 4676.818603,2365.156630"/>
    <poly id="26658458#1" type="leisure.park" color="207,245,201" fill="1" layer="-2.00" shape="4676.818603,2365.156630 4679.543145,2360.779438 4681.590361,2350.810676 4692.513574,2332.002526 4692.777817,2331.552773 4697.388113,2323.649095 4700.472541,2321.206885 4707.081080,2319.909822 4753.617164,2322.414376 4844.454716,2333.222906 4862.619466,2333.863906 4875.166983,2332.594429 4888.355445,2330.312043 4925.951178,2324.328936 4927.177886,2329.997494 4928.523493,2336.262962 4929.877930,2342.528241 4931.301365,2349.125073 4940.053627,2347.249159 4952.001787,2391.596953 4952.665755,2506.126148 4910.900753,2506.814853 4867.966497,2507.373545 4840.207537,2512.978445 4811.359879,2520.138891 4780.197197,2533.044337 4773.076609,2535.995390 4759.996930,2554.372584 4746.009556,2555.240351 4729.321819,2556.277388 4719.060583,2584.052223 4710.431175,2601.034674 4697.671521,2613.343743 4650.756497,2614.500115 4643.880022,2610.330051 4662.034534,2529.009518 4664.924376,2511.407042 4664.341060,2501.161977 4660.982332,2441.320447 4660.929064,2408.128562 4660.060345,2383.424598 4661.015788,2380.606447 4663.519546,2377.055512 4670.169069,2371.106068 4676.818603,2365.156630"/>
    <poly id="286257898" type="building.yes" color="255,230,230" fill="1" layer="-1.00" shape="5509.072966,2583.415379 5507.789089,2556.544528 5509.770727,2549.652486 5536.607562,2563.241555 5534.630909,2570.366609 5531.461637,2577.506167 5524.640706,2580.017179 5515.939633,2583.034818 5509.072966,2583.415379"/>
    <poly id="286257898#1" type="tourism.yes" color="207,245,201" fill="1" layer="-2.00" shape="5509.072966,2583.415379 5507.789089,2556.544528 5509.770727,2549.652486 5536.607562,2563.241555 5534.630909,2570.366609 5531.461637,2577.506167 5524.640706,2580.017179 5515.939633,2583.034818 5509.072966,2583.415379"/>
    <poly id="306381838" type="amenity.toilets" color="237,199,199" fill="1" layer="-1.00" shape="5941.488804,2936.120807 5941.792343,2929.253726 5964.575668,2930.253271 5964.271872,2937.109255 5941.488804,2936.120807"/>
    <poly id="306381838#1" type="building.yes" color="255,230,230" fill="1" layer="-1.00" shape="5941.488804,2936.120807 5941.792343,2929.253726 5964.575668,2930.253271 5964.271872,2937.109255 5941.488804,2936.120807"/>
    <poly id="320791141" type="building.yes" color="255,230,230" fill="1" layer="-1.00" shape="6003.103723,2974.932182 6000.278806,2985.783098 6009.608279,2988.192108 6012.433207,2977.341196 6003.103723,2974.932182"/>
    <poly id="320791141#1" type="tourism.attraction" color="207,245,201" fill="1" layer="-2.00" shape="6003.103723,2974.932182 6000.278806,2985.783098 6009.608279,2988.192108 6012.433207,2977.341196 6003.103723,2974.932182"/>
    <poly id="320791142" type="building.yes" color="255,230,230" fill="1" layer="-1.00" shape="5977.263708,2933.522819 5984.409977,2934.246767 5985.535807,2923.276817 5978.389291,2922.541771 5977.263708,2933.522819"/>
    <poly id="320791144" type="building.yes" color="255,230,230" fill="1" layer="-1.00" shape="5994.795459,2915.407548 5994.185722,2921.182157 6008.204481,2922.635953 6008.805396,2916.861534 5994.795459,2915.407548"/>
    <poly id="320791144#1" type="historic.city_gate" color="128,255,128" fill="1" layer="-1.00" shape="5994.795459,2915.407548 5994.185722,2921.182157 6008.204481,2922.635953 6008.805396,2916.861534 5994.795459,2915.407548"/>
    <poly id="320791145" type="building.roof" color="255,230,230" fill="1" layer="-1.00" shape="5982.875449,3005.760629 5981.129718,3004.288247 5978.982903,3003.479429 5976.693273,3003.428557 5974.517430,3004.152336 5972.709604,3005.556511 5971.528812,3007.358003 5970.981273,3009.434565 5971.124532,3011.585141 5971.935696,3013.565993 5973.340306,3015.201098 5975.184415,3016.316131 5977.288531,3016.781723 5979.439975,3016.569125 5981.409351,3015.694351 5983.004020,3014.239237 5984.091978,3012.228811 5984.450246,3009.978683 5984.031059,3007.734106 5982.875449,3005.760629"/>
    <poly id="320791145#1" type="tourism.attraction" color="207,245,201" fill="1" layer="-2.00" shape="5982.875449,3005.760629 5981.129718,3004.288247 5978.982903,3003.479429 5976.693273,3003.428557 5974.517430,3004.152336 5972.709604,3005.556511 5971.528812,3007.358003 5970.981273,3009.434565 5971.124532,3011.585141 5971.935696,3013.565993 5973.340306,3015.201098 5975.184415,3016.316131 5977.288531,3016.781723 5979.439975,3016.569125 5981.409351,3015.694351 5983.004020,3014.239237 5984.091978,3012.228811 5984.450246,3009.978683 5984.031059,3007.734106 5982.875449,3005.760629"/>