<?xml version="1.0" encoding="UTF-8"?>

<!-- generated on 09/28/21 19:39:03 by Eclipse SUMO netconvert Version 1.7.0
<configuration xmlns:xsi="http://www.w3.org/2001/XMLSchema-instance" xsi:noNamespaceSchemaLocation="http://sumo.dlr.de/xsd/netconvertConfiguration.xsd">

    <input>
        <type-files value="C:\Program%20Files%20(x86)\Eclipse\Sumo\data\typemap\osmNetconvert.typ.xml"/>
        <osm-files value="osm_bbox.osm.xml"/>
    </input>

    <output>
        <output-file value="osm.net.xml"/>
        <output.street-names value="true"/>
        <output.original-names value="true"/>
    </output>

    <projection>
        <proj.utm value="true"/>
    </projection>

    <processing>
        <geometry.remove value="true"/>
        <roundabouts.guess value="true"/>
    </processing>

    <tls_building>
        <tls.discard-simple value="true"/>
        <tls.join value="true"/>
        <tls.guess-signals value="true"/>
        <tls.default-type value="actuated"/>
    </tls_building>

    <ramp_guessing>
        <ramps.guess value="true"/>
    </ramp_guessing>

    <junctions>
        <junctions.join value="true"/>
        <junctions.corner-detail value="5"/>
    </junctions>

    <report>
        <verbose value="true"/>
        <aggregate-warnings value="5"/>
    </report>

</configuration>
-->

<net version="1.6" junctionCornerDetail="5" limitTurnSpeed="5.50" xmlns:xsi="http://www.w3.org/2001/XMLSchema-instance" xsi:noNamespaceSchemaLocation="http://sumo.dlr.de/xsd/net_file.xsd">

    <location netOffset="-316366.01,-4157140.93" convBoundary="0.00,0.00,14007.90,10421.23" origBoundary="126.704907,37.450867,127.118967,37.743405" projParameter="+proj=utm +zone=52 +ellps=WGS84 +datum=WGS84 +units=m +no_defs"/>

    <type id="highway.bridleway" priority="1" numLanes="1" speed="2.78" allow="pedestrian" oneway="1" width="2.00"/>
    <type id="highway.bus_guideway" priority="1" numLanes="1" speed="27.78" allow="bus" oneway="1"/>
    <type id="highway.cycleway" priority="1" numLanes="1" speed="8.33" allow="bicycle" oneway="0" width="1.00"/>
    <type id="highway.footway" priority="1" numLanes="1" speed="2.78" allow="pedestrian" oneway="1" width="2.00"/>
    <type id="highway.ford" priority="1" numLanes="1" speed="2.78" allow="army" oneway="0"/>
    <type id="highway.living_street" priority="2" numLanes="1" speed="2.78" disallow="tram rail_urban rail rail_electric rail_fast ship" oneway="0"/>
    <type id="highway.motorway" priority="14" numLanes="2" speed="39.44" allow="private emergency authority army vip passenger hov taxi bus coach delivery truck trailer motorcycle evehicle custom1 custom2" oneway="1"/>
    <type id="highway.motorway_link" priority="9" numLanes="1" speed="22.22" allow="private emergency authority army vip passenger hov taxi bus coach delivery truck trailer motorcycle evehicle custom1 custom2" oneway="1"/>
    <type id="highway.path" priority="1" numLanes="1" speed="2.78" allow="pedestrian bicycle" oneway="1" width="2.00"/>
    <type id="highway.pedestrian" priority="1" numLanes="1" speed="2.78" allow="pedestrian" oneway="1" width="2.00"/>
    <type id="highway.primary" priority="12" numLanes="2" speed="27.78" disallow="tram rail_urban rail rail_electric rail_fast ship" oneway="0"/>
    <type id="highway.primary_link" priority="7" numLanes="1" speed="22.22" disallow="tram rail_urban rail rail_electric rail_fast ship" oneway="0"/>
    <type id="highway.raceway" priority="15" numLanes="2" speed="83.33" allow="vip" oneway="0"/>
    <type id="highway.residential" priority="3" numLanes="1" speed="13.89" disallow="tram rail_urban rail rail_electric rail_fast ship" oneway="0"/>
    <type id="highway.secondary" priority="11" numLanes="1" speed="27.78" disallow="tram rail_urban rail rail_electric rail_fast ship" oneway="0"/>
    <type id="highway.secondary_link" priority="6" numLanes="1" speed="22.22" disallow="tram rail_urban rail rail_electric rail_fast ship" oneway="0"/>
    <type id="highway.service" priority="1" numLanes="1" speed="5.56" allow="pedestrian delivery bicycle" oneway="0"/>
    <type id="highway.stairs" priority="1" numLanes="1" speed="1.39" allow="pedestrian" oneway="1" width="2.00"/>
    <type id="highway.step" priority="1" numLanes="1" speed="1.39" allow="pedestrian" oneway="1" width="2.00"/>
    <type id="highway.steps" priority="1" numLanes="1" speed="1.39" allow="pedestrian" oneway="1" width="2.00"/>
    <type id="highway.tertiary" priority="10" numLanes="1" speed="22.22" disallow="tram rail_urban rail rail_electric rail_fast ship" oneway="0"/>
    <type id="highway.tertiary_link" priority="5" numLanes="1" speed="22.22" disallow="tram rail_urban rail rail_electric rail_fast ship" oneway="0"/>
    <type id="highway.track" priority="1" numLanes="1" speed="5.56" allow="pedestrian motorcycle moped bicycle" oneway="0"/>
    <type id="highway.trunk" priority="13" numLanes="2" speed="27.78" disallow="pedestrian bicycle tram rail_urban rail rail_electric rail_fast ship" oneway="0"/>
    <type id="highway.trunk_link" priority="8" numLanes="1" speed="22.22" disallow="pedestrian bicycle tram rail_urban rail rail_electric rail_fast ship" oneway="0"/>
    <type id="highway.unclassified" priority="4" numLanes="1" speed="13.89" disallow="tram rail_urban rail rail_electric rail_fast ship" oneway="0"/>
    <type id="highway.unsurfaced" priority="1" numLanes="1" speed="8.33" disallow="tram rail_urban rail rail_electric rail_fast ship" oneway="0"/>
    <type id="railway.highspeed" priority="21" numLanes="1" speed="69.44" allow="rail_fast" oneway="1"/>
    <type id="railway.light_rail" priority="19" numLanes="1" speed="27.78" allow="rail_urban" oneway="1"/>
    <type id="railway.preserved" priority="16" numLanes="1" speed="27.78" allow="rail" oneway="1"/>
    <type id="railway.rail" priority="20" numLanes="1" speed="44.44" allow="rail" oneway="1"/>
    <type id="railway.subway" priority="18" numLanes="1" speed="27.78" allow="rail_urban" oneway="1"/>
    <type id="railway.tram" priority="17" numLanes="1" speed="13.89" allow="tram" oneway="1"/>

    <edge id=":1326151556_0" function="internal">
        <lane id=":1326151556_0_0" index="0" disallow="tram rail_urban rail rail_electric rail_fast ship" speed="6.58" length="9.01" shape="6918.03,2723.22 6918.00,2725.73 6918.74,2727.66 6920.25,2729.01 6922.52,2729.79"/>
    </edge>
    <edge id=":1326151556_1" function="internal">
        <lane id=":1326151556_1_0" index="0" disallow="tram rail_urban rail rail_electric rail_fast ship" speed="27.78" length="11.16" shape="6911.74,2727.39 6922.52,2729.79"/>
        <lane id=":1326151556_1_1" index="1" disallow="tram rail_urban rail rail_electric rail_fast ship" speed="27.78" length="11.16" shape="6910.94,2730.49 6921.95,2732.93"/>
    </edge>
    <edge id=":1326151571_0" function="internal">
        <lane id=":1326151571_0_0" index="0" disallow="tram rail_urban rail rail_electric rail_fast ship" speed="6.95" length="9.60" shape="6084.09,2909.61 6081.66,2909.88 6079.78,2910.93 6078.47,2912.77 6077.71,2915.40"/>
    </edge>
    <edge id=":1326151571_1" function="internal">
        <lane id=":1326151571_1_0" index="0" disallow="tram rail_urban rail rail_electric rail_fast ship" speed="16.67" length="14.44" shape="6084.09,2909.61 6069.67,2908.91"/>
        <lane id=":1326151571_1_1" index="1" disallow="tram rail_urban rail rail_electric rail_fast ship" speed="16.67" length="14.44" shape="6084.25,2906.42 6069.83,2905.71"/>
        <lane id=":1326151571_1_2" index="2" disallow="tram rail_urban rail rail_electric rail_fast ship" speed="16.67" length="14.44" shape="6084.40,2903.22 6069.98,2902.52"/>
        <lane id=":1326151571_1_3" index="3" disallow="tram rail_urban rail rail_electric rail_fast ship" speed="16.67" length="14.44" shape="6084.56,2900.02 6070.14,2899.32"/>
    </edge>
    <edge id=":1326151571_5" function="internal">
        <lane id=":1326151571_5_0" index="0" disallow="tram rail_urban rail rail_electric rail_fast ship" speed="6.29" length="9.04" shape="6074.55,2914.90 6074.58,2912.39 6073.78,2910.55 6072.14,2909.39 6069.67,2908.91"/>
    </edge>
    <edge id=":1326151571_6" function="internal">
        <lane id=":1326151571_6_0" index="0" disallow="tram rail_urban rail rail_electric rail_fast ship" speed="7.12" length="11.93" shape="6074.55,2914.90 6074.78,2910.99 6074.07,2908.16 6072.42,2906.40 6069.83,2905.71"/>
    </edge>
    <edge id=":1326151571_7" function="internal">
        <lane id=":1326151571_7_0" index="0" disallow="tram rail_urban rail rail_electric rail_fast ship" speed="3.65" length="4.67" shape="6074.55,2914.90 6075.53,2913.84 6076.38,2913.57 6077.11,2914.09 6077.71,2915.40"/>
    </edge>
    <edge id=":1327214761_0" function="internal">
        <lane id=":1327214761_0_0" index="0" disallow="tram rail_urban rail rail_electric rail_fast ship" speed="9.25" length="12.07" shape="6444.94,2420.45 6441.58,2422.21 6439.12,2424.17 6437.56,2426.34 6436.91,2428.71"/>
    </edge>
    <edge id=":1327214761_1" function="internal">
        <lane id=":1327214761_1_0" index="0" disallow="tram rail_urban rail rail_electric rail_fast ship" speed="7.43" length="16.52" shape="6444.94,2420.45 6440.21,2421.78 6436.95,2421.04 6435.17,2418.21 6434.86,2413.30"/>
    </edge>
    <edge id=":1327214761_2" function="internal">
        <lane id=":1327214761_2_0" index="0" disallow="tram rail_urban rail rail_electric rail_fast ship" speed="3.65" length="4.67" shape="6444.94,2420.45 6443.52,2420.19 6442.84,2419.62 6442.89,2418.72 6443.67,2417.51"/>
    </edge>
    <edge id=":1327214761_3" function="internal">
        <lane id=":1327214761_3_0" index="0" disallow="tram rail_urban rail rail_electric rail_fast ship" speed="5.71" length="9.20" shape="6438.05,2413.53 6438.23,2416.27 6439.22,2417.84 6441.03,2418.26 6443.67,2417.51"/>
    </edge>
    <edge id=":1327214761_4" function="internal">
        <lane id=":1327214761_4_0" index="0" disallow="tram rail_urban rail rail_electric rail_fast ship" speed="13.89" length="15.22" shape="6438.05,2413.53 6436.91,2428.71"/>
    </edge>
    <edge id=":1327214761_5" function="internal">
        <lane id=":1327214761_5_0" index="0" disallow="tram rail_urban rail rail_electric rail_fast ship" speed="3.65" length="2.34" shape="6438.05,2413.53 6437.17,2414.67 6436.34,2415.02"/>
    </edge>
    <edge id=":1327214761_9" function="internal">
        <lane id=":1327214761_9_0" index="0" disallow="tram rail_urban rail rail_electric rail_fast ship" speed="3.65" length="2.34" shape="6436.34,2415.02 6435.57,2414.56 6434.86,2413.30"/>
    </edge>
    <edge id=":1327214761_6" function="internal">
        <lane id=":1327214761_6_0" index="0" disallow="tram rail_urban rail rail_electric rail_fast ship" speed="13.89" length="15.19" shape="6433.72,2428.45 6434.86,2413.30"/>
    </edge>
    <edge id=":1327214761_7" function="internal">
        <lane id=":1327214761_7_0" index="0" disallow="tram rail_urban rail rail_electric rail_fast ship" speed="10.43" length="5.43" shape="6433.72,2428.45 6434.55,2425.19 6435.70,2423.47"/>
    </edge>
    <edge id=":1327214761_8" function="internal">
        <lane id=":1327214761_8_0" index="0" disallow="tram rail_urban rail rail_electric rail_fast ship" speed="3.65" length="2.34" shape="6433.72,2428.45 6434.61,2427.32 6435.44,2426.98"/>
    </edge>
    <edge id=":1327214761_10" function="internal">
        <lane id=":1327214761_10_0" index="0" disallow="tram rail_urban rail rail_electric rail_fast ship" speed="10.43" length="10.09" shape="6435.70,2423.47 6436.48,2422.29 6439.52,2419.73 6443.67,2417.51"/>
    </edge>
    <edge id=":1327214761_11" function="internal">
        <lane id=":1327214761_11_0" index="0" disallow="tram rail_urban rail rail_electric rail_fast ship" speed="3.65" length="2.34" shape="6435.44,2426.98 6436.21,2427.45 6436.91,2428.71"/>
    </edge>
    <edge id=":1327214772_0" function="internal">
        <lane id=":1327214772_0_0" index="0" disallow="tram rail_urban rail rail_electric rail_fast ship" speed="9.26" length="12.12" shape="6555.06,2449.53 6556.95,2452.85 6559.01,2455.25 6561.24,2456.73 6563.63,2457.30"/>
    </edge>
    <edge id=":1327214772_1" function="internal">
        <lane id=":1327214772_1_0" index="0" disallow="tram rail_urban rail rail_electric rail_fast ship" speed="3.65" length="4.67" shape="6555.06,2449.53 6554.85,2450.96 6554.30,2451.67 6553.41,2451.65 6552.17,2450.92"/>
    </edge>
    <edge id=":1327214772_2" function="internal">
        <lane id=":1327214772_2_0" index="0" disallow="tram rail_urban rail rail_electric rail_fast ship" speed="5.70" length="9.21" shape="6548.39,2456.64 6551.12,2456.39 6552.67,2455.35 6553.01,2453.53 6552.17,2450.92"/>
    </edge>
    <edge id=":1327214772_3" function="internal">
        <lane id=":1327214772_3_0" index="0" disallow="tram rail_urban rail rail_electric rail_fast ship" speed="16.67" length="15.25" shape="6548.39,2456.64 6563.63,2457.30"/>
        <lane id=":1327214772_3_1" index="1" disallow="tram rail_urban rail rail_electric rail_fast ship" speed="16.67" length="15.25" shape="6548.25,2459.84 6563.49,2460.50"/>
    </edge>
    <edge id=":1688005107_0" function="internal">
        <lane id=":1688005107_0_0" index="0" disallow="tram rail_urban rail rail_electric rail_fast ship" speed="6.43" length="9.03" shape="6435.49,2446.08 6435.65,2448.56 6436.56,2450.37 6438.25,2451.51 6440.69,2451.97"/>
    </edge>
    <edge id=":1688005107_1" function="internal">
        <lane id=":1688005107_1_0" index="0" disallow="tram rail_urban rail rail_electric rail_fast ship" speed="3.65" length="4.67" shape="6435.49,2446.08 6434.60,2447.21 6433.77,2447.54 6433.00,2447.08 6432.30,2445.82"/>
    </edge>
    <edge id=":1688005107_2" function="internal">
        <lane id=":1688005107_2_0" index="0" disallow="tram rail_urban rail rail_electric rail_fast ship" speed="6.67" length="9.23" shape="6426.30,2451.37 6428.75,2451.10 6430.57,2450.09 6431.75,2448.33 6432.30,2445.82"/>
    </edge>
    <edge id=":1688005107_3" function="internal">
        <lane id=":1688005107_3_0" index="0" disallow="tram rail_urban rail rail_electric rail_fast ship" speed="16.67" length="14.39" shape="6426.30,2451.37 6440.69,2451.97"/>
        <lane id=":1688005107_3_1" index="1" disallow="tram rail_urban rail rail_electric rail_fast ship" speed="16.67" length="14.39" shape="6426.18,2454.57 6440.55,2455.17"/>
    </edge>
    <edge id=":1691642790_0" function="internal">
        <lane id=":1691642790_0_0" index="0" disallow="tram rail_urban rail rail_electric rail_fast ship" speed="6.56" length="9.08" shape="6614.14,2675.52 6614.31,2677.98 6615.24,2679.81 6616.92,2681.01 6619.35,2681.58"/>
    </edge>
    <edge id=":1691642790_1" function="internal">
        <lane id=":1691642790_1_0" index="0" disallow="tram rail_urban rail rail_electric rail_fast ship" speed="27.78" length="13.81" shape="6605.64,2680.46 6619.35,2681.58"/>
        <lane id=":1691642790_1_1" index="1" disallow="tram rail_urban rail rail_electric rail_fast ship" speed="27.78" length="13.81" shape="6605.39,2683.65 6619.21,2684.78"/>
    </edge>
    <edge id=":1691642790_3" function="internal">
        <lane id=":1691642790_3_0" index="0" disallow="tram rail_urban rail rail_electric rail_fast ship" speed="8.23" length="13.03" shape="6608.47,2689.95 6609.75,2687.38 6611.97,2685.67 6615.12,2684.80 6619.21,2684.78"/>
    </edge>
    <edge id=":1691642796_0" function="internal">
        <lane id=":1691642796_0_0" index="0" disallow="tram rail_urban rail rail_electric rail_fast ship" speed="27.78" length="6.70" shape="6610.00,2713.03 6603.34,2712.39"/>
        <lane id=":1691642796_0_1" index="1" disallow="tram rail_urban rail rail_electric rail_fast ship" speed="27.78" length="6.70" shape="6610.31,2709.85 6603.64,2709.20"/>
    </edge>
    <edge id=":1691642796_2" function="internal">
        <lane id=":1691642796_2_0" index="0" disallow="tram rail_urban rail rail_electric rail_fast ship" speed="6.01" length="6.00" shape="6610.31,2709.85 6609.58,2709.46 6608.94,2708.46 6608.37,2706.85 6607.89,2704.62"/>
    </edge>
    <edge id=":1691642802_0" function="internal">
        <lane id=":1691642802_0_0" index="0" disallow="tram rail_urban rail rail_electric rail_fast ship" speed="6.73" length="9.26" shape="6579.16,2710.07 6576.69,2710.22 6574.80,2711.14 6573.50,2712.82 6572.78,2715.27"/>
    </edge>
    <edge id=":1691642802_1" function="internal">
        <lane id=":1691642802_1_0" index="0" disallow="tram rail_urban rail rail_electric rail_fast ship" speed="27.78" length="14.47" shape="6579.16,2710.07 6564.80,2708.63"/>
        <lane id=":1691642802_1_1" index="1" disallow="tram rail_urban rail rail_electric rail_fast ship" speed="27.78" length="14.47" shape="6579.54,2706.89 6565.11,2705.44"/>
    </edge>
    <edge id=":1691642802_3" function="internal">
        <lane id=":1691642802_3_0" index="0" disallow="tram rail_urban rail rail_electric rail_fast ship" speed="13.89" length="13.17" shape="6574.36,2702.25 6573.48,2705.56 6573.19,2708.66 6573.09,2711.81 6572.78,2715.27"/>
    </edge>
    <edge id=":1691642802_4" function="internal">
        <lane id=":1691642802_4_0" index="0" disallow="tram rail_urban rail rail_electric rail_fast ship" speed="7.72" length="10.48" shape="6574.36,2702.25 6573.23,2703.93 6571.31,2705.02 6568.60,2705.53 6565.11,2705.44"/>
    </edge>
    <edge id=":1691642802_5" function="internal">
        <lane id=":1691642802_5_0" index="0" disallow="tram rail_urban rail rail_electric rail_fast ship" speed="6.40" length="9.03" shape="6569.61,2714.80 6569.63,2712.30 6568.83,2710.44 6567.22,2709.22 6564.80,2708.63"/>
    </edge>
    <edge id=":1691642802_6" function="internal">
        <lane id=":1691642802_6_0" index="0" disallow="tram rail_urban rail rail_electric rail_fast ship" speed="3.65" length="4.67" shape="6569.61,2714.80 6570.58,2713.73 6571.43,2713.45 6572.17,2713.97 6572.78,2715.27"/>
    </edge>
    <edge id=":1813641425_0" function="internal">
        <lane id=":1813641425_0_0" index="0" disallow="tram rail_urban rail rail_electric rail_fast ship" speed="6.41" length="9.04" shape="6298.72,2438.76 6298.85,2441.26 6299.75,2443.08 6301.42,2444.22 6303.87,2444.68"/>
    </edge>
    <edge id=":1813641425_1" function="internal">
        <lane id=":1813641425_1_0" index="0" disallow="tram rail_urban rail rail_electric rail_fast ship" speed="3.65" length="4.67" shape="6298.72,2438.76 6297.82,2439.88 6296.98,2440.21 6296.22,2439.74 6295.54,2438.47"/>
    </edge>
    <edge id=":1813641425_2" function="internal">
        <lane id=":1813641425_2_0" index="0" disallow="tram rail_urban rail rail_electric rail_fast ship" speed="6.67" length="9.18" shape="6289.45,2443.87 6291.92,2443.62 6293.76,2442.63 6294.96,2440.92 6295.54,2438.47"/>
    </edge>
    <edge id=":1813641425_3" function="internal">
        <lane id=":1813641425_3_0" index="0" disallow="tram rail_urban rail rail_electric rail_fast ship" speed="16.67" length="14.51" shape="6289.45,2443.87 6303.87,2444.68"/>
        <lane id=":1813641425_3_1" index="1" disallow="tram rail_urban rail rail_electric rail_fast ship" speed="16.67" length="14.51" shape="6289.22,2447.06 6303.70,2447.88"/>
        <lane id=":1813641425_3_2" index="2" disallow="tram rail_urban rail rail_electric rail_fast ship" speed="16.67" length="14.51" shape="6288.99,2450.26 6303.54,2451.07"/>
    </edge>
    <edge id=":1813641436_0" function="internal">
        <lane id=":1813641436_0_0" index="0" disallow="tram rail_urban rail rail_electric rail_fast ship" speed="6.67" length="9.31" shape="6307.72,2401.95 6305.23,2402.17 6303.37,2403.15 6302.15,2404.90 6301.57,2407.41"/>
    </edge>
    <edge id=":1813641436_1" function="internal">
        <lane id=":1813641436_1_0" index="0" disallow="tram rail_urban rail rail_electric rail_fast ship" speed="13.89" length="14.52" shape="6307.72,2401.95 6293.22,2401.23"/>
    </edge>
    <edge id=":1813641436_2" function="internal">
        <lane id=":1813641436_2_0" index="0" disallow="tram rail_urban rail rail_electric rail_fast ship" speed="8.01" length="5.84" shape="6307.72,2401.95 6303.92,2401.18 6302.30,2400.08"/>
    </edge>
    <edge id=":1813641436_3" function="internal">
        <lane id=":1813641436_3_0" index="0" disallow="tram rail_urban rail rail_electric rail_fast ship" speed="3.65" length="2.34" shape="6307.72,2401.95 6306.57,2401.08 6306.22,2400.26"/>
    </edge>
    <edge id=":1813641436_16" function="internal">
        <lane id=":1813641436_16_0" index="0" disallow="tram rail_urban rail rail_electric rail_fast ship" speed="8.01" length="8.34" shape="6302.30,2400.08 6301.27,2399.38 6299.77,2396.54 6299.43,2392.67"/>
    </edge>
    <edge id=":1813641436_17" function="internal">
        <lane id=":1813641436_17_0" index="0" disallow="tram rail_urban rail rail_electric rail_fast ship" speed="3.65" length="2.34" shape="6306.22,2400.26 6306.66,2399.49 6307.91,2398.76"/>
    </edge>
    <edge id=":1813641436_4" function="internal">
        <lane id=":1813641436_4_0" index="0" disallow="tram rail_urban rail rail_electric rail_fast ship" speed="6.52" length="9.03" shape="6302.63,2392.85 6302.84,2395.31 6303.80,2397.12 6305.48,2398.26 6307.91,2398.76"/>
    </edge>
    <edge id=":1813641436_5" function="internal">
        <lane id=":1813641436_5_0" index="0" disallow="tram rail_urban rail rail_electric rail_fast ship" speed="13.89" length="14.60" shape="6302.63,2392.85 6301.57,2407.41"/>
    </edge>
    <edge id=":1813641436_6" function="internal">
        <lane id=":1813641436_6_0" index="0" disallow="tram rail_urban rail rail_electric rail_fast ship" speed="8.07" length="14.33" shape="6302.63,2392.85 6301.86,2396.65 6300.04,2399.32 6297.16,2400.84 6293.22,2401.23"/>
    </edge>
    <edge id=":1813641436_7" function="internal">
        <lane id=":1813641436_7_0" index="0" disallow="tram rail_urban rail rail_electric rail_fast ship" speed="3.65" length="4.67" shape="6302.63,2392.85 6301.76,2394.00 6300.94,2394.36 6300.17,2393.91 6299.43,2392.67"/>
    </edge>
    <edge id=":1813641436_8" function="internal">
        <lane id=":1813641436_8_0" index="0" disallow="tram rail_urban rail rail_electric rail_fast ship" speed="6.59" length="9.21" shape="6293.35,2398.03 6295.90,2397.78 6297.76,2396.81 6298.94,2395.11 6299.43,2392.67"/>
    </edge>
    <edge id=":1813641436_9" function="internal">
        <lane id=":1813641436_9_0" index="0" disallow="tram rail_urban rail rail_electric rail_fast ship" speed="13.89" length="14.57" shape="6293.35,2398.03 6307.91,2398.76"/>
    </edge>
    <edge id=":1813641436_10" function="internal">
        <lane id=":1813641436_10_0" index="0" disallow="tram rail_urban rail rail_electric rail_fast ship" speed="7.92" length="6.03" shape="6293.35,2398.03 6297.26,2398.76 6298.96,2399.91"/>
    </edge>
    <edge id=":1813641436_11" function="internal">
        <lane id=":1813641436_11_0" index="0" disallow="tram rail_urban rail rail_electric rail_fast ship" speed="3.65" length="2.34" shape="6293.35,2398.03 6294.52,2398.88 6294.89,2399.69"/>
    </edge>
    <edge id=":1813641436_18" function="internal">
        <lane id=":1813641436_18_0" index="0" disallow="tram rail_urban rail rail_electric rail_fast ship" speed="7.92" length="8.35" shape="6298.96,2399.91 6299.92,2400.56 6301.36,2403.45 6301.57,2407.41"/>
    </edge>
    <edge id=":1813641436_19" function="internal">
        <lane id=":1813641436_19_0" index="0" disallow="tram rail_urban rail rail_electric rail_fast ship" speed="3.65" length="2.34" shape="6294.89,2399.69 6294.45,2400.48 6293.22,2401.23"/>
    </edge>
    <edge id=":1813641436_12" function="internal">
        <lane id=":1813641436_12_0" index="0" disallow="tram rail_urban rail rail_electric rail_fast ship" speed="6.40" length="9.04" shape="6298.38,2407.12 6298.25,2404.63 6297.35,2402.82 6295.67,2401.68 6293.22,2401.23"/>
    </edge>
    <edge id=":1813641436_13" function="internal">
        <lane id=":1813641436_13_0" index="0" disallow="tram rail_urban rail rail_electric rail_fast ship" speed="13.89" length="14.48" shape="6298.38,2407.12 6299.43,2392.67"/>
    </edge>
    <edge id=":1813641436_14" function="internal">
        <lane id=":1813641436_14_0" index="0" disallow="tram rail_urban rail rail_electric rail_fast ship" speed="8.14" length="14.35" shape="6298.38,2407.12 6299.28,2403.27 6301.17,2400.59 6304.04,2399.09 6307.91,2398.76"/>
    </edge>
    <edge id=":1813641436_15" function="internal">
        <lane id=":1813641436_15_0" index="0" disallow="tram rail_urban rail rail_electric rail_fast ship" speed="3.65" length="4.67" shape="6298.38,2407.12 6299.29,2406.00 6300.12,2405.67 6300.88,2406.14 6301.57,2407.41"/>
    </edge>
    <edge id=":1813641463_0" function="internal">
        <lane id=":1813641463_0_0" index="0" disallow="tram rail_urban rail rail_electric rail_fast ship" speed="3.65" length="4.67" shape="6307.66,2239.82 6308.52,2238.66 6309.34,2238.31 6310.12,2238.75 6310.86,2239.99"/>
    </edge>
    <edge id=":1813641482_0" function="internal">
        <lane id=":1813641482_0_0" index="0" disallow="tram rail_urban rail rail_electric rail_fast ship" speed="27.78" length="9.35" shape="6354.49,2398.42 6353.86,2407.75"/>
    </edge>
    <edge id=":1813641482_1" function="internal">
        <lane id=":1813641482_1_0" index="0" disallow="tram rail_urban rail rail_electric rail_fast ship" speed="6.12" length="7.73" shape="6354.49,2398.42 6354.08,2401.14 6353.35,2403.06 6352.30,2404.17 6350.94,2404.48"/>
    </edge>
    <edge id=":1813641482_2" function="internal">
        <lane id=":1813641482_2_0" index="0" disallow="tram rail_urban rail rail_electric rail_fast ship" speed="6.09" length="7.74" shape="6351.12,2401.29 6352.45,2401.76 6353.34,2402.99 6353.81,2404.99 6353.86,2407.75"/>
    </edge>
    <edge id=":1813641482_3" function="internal">
        <lane id=":1813641482_3_0" index="0" disallow="tram rail_urban rail rail_electric rail_fast ship" speed="3.65" length="4.67" shape="6351.12,2401.29 6352.27,2402.16 6352.63,2402.98 6352.18,2403.75 6350.94,2404.48"/>
    </edge>
    <edge id=":1815457779_0" function="internal">
        <lane id=":1815457779_0_0" index="0" disallow="tram rail_urban rail rail_electric rail_fast ship" speed="6.33" length="9.04" shape="6689.70,2524.41 6687.20,2524.38 6685.35,2525.18 6684.16,2526.81 6683.63,2529.26"/>
    </edge>
    <edge id=":1815457779_1" function="internal">
        <lane id=":1815457779_1_0" index="0" disallow="tram rail_urban rail rail_electric rail_fast ship" speed="13.89" length="14.32" shape="6689.70,2524.41 6675.64,2521.71"/>
    </edge>
    <edge id=":1815457779_2" function="internal">
        <lane id=":1815457779_2_0" index="0" disallow="tram rail_urban rail rail_electric rail_fast ship" speed="3.65" length="2.34" shape="6689.70,2524.41 6688.64,2523.43 6688.36,2522.58"/>
    </edge>
    <edge id=":1815457779_9" function="internal">
        <lane id=":1815457779_9_0" index="0" disallow="tram rail_urban rail rail_electric rail_fast ship" speed="3.65" length="2.34" shape="6688.36,2522.58 6688.88,2521.85 6690.19,2521.25"/>
    </edge>
    <edge id=":1815457779_3" function="internal">
        <lane id=":1815457779_3_0" index="0" disallow="tram rail_urban rail rail_electric rail_fast ship" speed="13.89" length="14.07" shape="6676.37,2518.60 6690.19,2521.25"/>
    </edge>
    <edge id=":1815457779_4" function="internal">
        <lane id=":1815457779_4_0" index="0" disallow="tram rail_urban rail rail_electric rail_fast ship" speed="8.52" length="5.34" shape="6676.37,2518.60 6679.78,2519.95 6680.99,2521.11"/>
    </edge>
    <edge id=":1815457779_5" function="internal">
        <lane id=":1815457779_5_0" index="0" disallow="tram rail_urban rail rail_electric rail_fast ship" speed="3.65" length="2.34" shape="6676.37,2518.60 6677.36,2519.65 6677.56,2520.52"/>
    </edge>
    <edge id=":1815457779_10" function="internal">
        <lane id=":1815457779_10_0" index="0" disallow="tram rail_urban rail rail_electric rail_fast ship" speed="8.52" length="8.90" shape="6680.99,2521.11 6682.12,2522.18 6683.41,2525.28 6683.63,2529.26"/>
    </edge>
    <edge id=":1815457779_11" function="internal">
        <lane id=":1815457779_11_0" index="0" disallow="tram rail_urban rail rail_electric rail_fast ship" speed="3.65" length="2.34" shape="6677.56,2520.52 6676.99,2521.21 6675.64,2521.71"/>
    </edge>
    <edge id=":1815457779_6" function="internal">
        <lane id=":1815457779_6_0" index="0" disallow="tram rail_urban rail rail_electric rail_fast ship" speed="7.12" length="9.66" shape="6680.44,2529.04 6680.30,2526.29 6679.45,2524.15 6677.90,2522.63 6675.64,2521.71"/>
    </edge>
    <edge id=":1815457779_7" function="internal">
        <lane id=":1815457779_7_0" index="0" disallow="tram rail_urban rail rail_electric rail_fast ship" speed="7.86" length="14.52" shape="6680.44,2529.04 6681.29,2525.10 6683.20,2522.49 6686.16,2521.20 6690.19,2521.25"/>
    </edge>
    <edge id=":1815457779_8" function="internal">
        <lane id=":1815457779_8_0" index="0" disallow="tram rail_urban rail rail_electric rail_fast ship" speed="3.65" length="4.67" shape="6680.44,2529.04 6681.32,2527.90 6682.15,2527.55 6682.92,2528.01 6683.63,2529.26"/>
    </edge>
    <edge id=":1815457804_0" function="internal">
        <lane id=":1815457804_0_0" index="0" disallow="tram rail_urban rail rail_electric rail_fast ship" speed="6.46" length="9.03" shape="6627.47,2454.44 6627.66,2456.91 6628.60,2458.72 6630.29,2459.85 6632.73,2460.31"/>
    </edge>
    <edge id=":1815457804_1" function="internal">
        <lane id=":1815457804_1_0" index="0" disallow="tram rail_urban rail rail_electric rail_fast ship" speed="16.67" length="11.20" shape="6621.54,2459.82 6632.73,2460.31"/>
        <lane id=":1815457804_1_1" index="1" disallow="tram rail_urban rail rail_electric rail_fast ship" speed="16.67" length="11.20" shape="6621.40,2463.02 6632.59,2463.50"/>
    </edge>
    <edge id=":1815457813_0" function="internal">