<?xml version="1.0" encoding="UTF-8"?>

<!-- generated on 09/28/21 16:32:43 by Eclipse SUMO netconvert Version 1.7.0
<configuration xmlns:xsi="http://www.w3.org/2001/XMLSchema-instance" xsi:noNamespaceSchemaLocation="http://sumo.dlr.de/xsd/netconvertConfiguration.xsd">

    <input>
        <type-files value="C:\Program%20Files%20(x86)\Eclipse\Sumo\data\typemap\osmNetconvert.typ.xml"/>
        <osm-files value="osm_bbox.osm.xml"/>
    </input>

    <output>
        <output-file value="osm.net.xml"/>
        <output.street-names value="true"/>
        <output.original-names value="true"/>
    </output>

    <projection>
        <proj.utm value="true"/>
    </projection>

    <processing>
        <geometry.remove value="true"/>
        <roundabouts.guess value="true"/>
    </processing>

    <tls_building>
        <tls.discard-simple value="true"/>
        <tls.join value="true"/>
        <tls.guess-signals value="true"/>
        <tls.default-type value="actuated"/>
    </tls_building>

    <ramp_guessing>
        <ramps.guess value="true"/>
    </ramp_guessing>

    <junctions>
        <junctions.join value="true"/>
        <junctions.corner-detail value="5"/>
    </junctions>

    <report>
        <verbose value="true"/>
        <aggregate-warnings value="5"/>
    </report>

</configuration>
-->

<net version="1.6" junctionCornerDetail="5" limitTurnSpeed="5.50" xmlns:xsi="http://www.w3.org/2001/XMLSchema-instance" xsi:noNamespaceSchemaLocation="http://sumo.dlr.de/xsd/net_file.xsd">

    <location netOffset="-390616.10,-5820336.67" convBoundary="0.00,0.00,1060.63,898.63" origBoundary="13.387627,52.522277,13.403308,52.530263" projParameter="+proj=utm +zone=33 +ellps=WGS84 +datum=WGS84 +units=m +no_defs"/>

    <type id="highway.bridleway" priority="1" numLanes="1" speed="2.78" allow="pedestrian" oneway="1" width="2.00"/>
    <type id="highway.bus_guideway" priority="1" numLanes="1" speed="27.78" allow="bus" oneway="1"/>
    <type id="highway.cycleway" priority="1" numLanes="1" speed="8.33" allow="bicycle" oneway="0" width="1.00"/>
    <type id="highway.footway" priority="1" numLanes="1" speed="2.78" allow="pedestrian" oneway="1" width="2.00"/>
    <type id="highway.ford" priority="1" numLanes="1" speed="2.78" allow="army" oneway="0"/>
    <type id="highway.living_street" priority="2" numLanes="1" speed="2.78" disallow="tram rail_urban rail rail_electric rail_fast ship" oneway="0"/>
    <type id="highway.motorway" priority="14" numLanes="2" speed="39.44" allow="private emergency authority army vip passenger hov taxi bus coach delivery truck trailer motorcycle evehicle custom1 custom2" oneway="1"/>
    <type id="highway.motorway_link" priority="9" numLanes="1" speed="22.22" allow="private emergency authority army vip passenger hov taxi bus coach delivery truck trailer motorcycle evehicle custom1 custom2" oneway="1"/>
    <type id="highway.path" priority="1" numLanes="1" speed="2.78" allow="pedestrian bicycle" oneway="1" width="2.00"/>
    <type id="highway.pedestrian" priority="1" numLanes="1" speed="2.78" allow="pedestrian" oneway="1" width="2.00"/>
    <type id="highway.primary" priority="12" numLanes="2" speed="27.78" disallow="tram rail_urban rail rail_electric rail_fast ship" oneway="0"/>
    <type id="highway.primary_link" priority="7" numLanes="1" speed="22.22" disallow="tram rail_urban rail rail_electric rail_fast ship" oneway="0"/>
    <type id="highway.raceway" priority="15" numLanes="2" speed="83.33" allow="vip" oneway="0"/>
    <type id="highway.residential" priority="3" numLanes="1" speed="13.89" disallow="tram rail_urban rail rail_electric rail_fast ship" oneway="0"/>
    <type id="highway.secondary" priority="11" numLanes="1" speed="27.78" disallow="tram rail_urban rail rail_electric rail_fast ship" oneway="0"/>
    <type id="highway.secondary_link" priority="6" numLanes="1" speed="22.22" disallow="tram rail_urban rail rail_electric rail_fast ship" oneway="0"/>
    <type id="highway.service" priority="1" numLanes="1" speed="5.56" allow="pedestrian delivery bicycle" oneway="0"/>
    <type id="highway.stairs" priority="1" numLanes="1" speed="1.39" allow="pedestrian" oneway="1" width="2.00"/>
    <type id="highway.step" priority="1" numLanes="1" speed="1.39" allow="pedestrian" oneway="1" width="2.00"/>
    <type id="highway.steps" priority="1" numLanes="1" speed="1.39" allow="pedestrian" oneway="1" width="2.00"/>
    <type id="highway.tertiary" priority="10" numLanes="1" speed="22.22" disallow="tram rail_urban rail rail_electric rail_fast ship" oneway="0"/>
    <type id="highway.tertiary_link" priority="5" numLanes="1" speed="22.22" disallow="tram rail_urban rail rail_electric rail_fast ship" oneway="0"/>
    <type id="highway.track" priority="1" numLanes="1" speed="5.56" allow="pedestrian motorcycle moped bicycle" oneway="0"/>
    <type id="highway.trunk" priority="13" numLanes="2" speed="27.78" disallow="pedestrian bicycle tram rail_urban rail rail_electric rail_fast ship" oneway="0"/>
    <type id="highway.trunk_link" priority="8" numLanes="1" speed="22.22" disallow="pedestrian bicycle tram rail_urban rail rail_electric rail_fast ship" oneway="0"/>
    <type id="highway.unclassified" priority="4" numLanes="1" speed="13.89" disallow="tram rail_urban rail rail_electric rail_fast ship" oneway="0"/>
    <type id="highway.unsurfaced" priority="1" numLanes="1" speed="8.33" disallow="tram rail_urban rail rail_electric rail_fast ship" oneway="0"/>
    <type id="railway.highspeed" priority="21" numLanes="1" speed="69.44" allow="rail_fast" oneway="1"/>
    <type id="railway.light_rail" priority="19" numLanes="1" speed="27.78" allow="rail_urban" oneway="1"/>
    <type id="railway.preserved" priority="16" numLanes="1" speed="27.78" allow="rail" oneway="1"/>
    <type id="railway.rail" priority="20" numLanes="1" speed="44.44" allow="rail" oneway="1"/>
    <type id="railway.subway" priority="18" numLanes="1" speed="27.78" allow="rail_urban" oneway="1"/>
    <type id="railway.tram" priority="17" numLanes="1" speed="13.89" allow="tram" oneway="1"/>

    <edge id=":1075544310_0" function="internal">
        <lane id=":1075544310_0_0" index="0" disallow="tram rail_urban rail rail_electric rail_fast ship" speed="3.65" length="4.67" shape="434.72,36.37 435.10,34.98 435.73,34.34 436.61,34.47 437.75,35.35"/>
    </edge>
    <edge id=":1210473765_0" function="internal">
        <lane id=":1210473765_0_0" index="0" allow="pedestrian delivery bicycle" speed="3.65" length="4.67" shape="331.64,147.56 331.94,146.15 332.54,145.48 333.43,145.56 334.61,146.39"/>
    </edge>
    <edge id=":1210473819_0" function="internal">
        <lane id=":1210473819_0_0" index="0" allow="pedestrian delivery bicycle" speed="3.65" length="4.67" shape="372.19,255.87 371.82,257.26 371.19,257.89 370.30,257.77 369.16,256.89"/>
    </edge>
    <edge id=":1503717543_0" function="internal">
        <lane id=":1503717543_0_0" index="0" allow="pedestrian delivery bicycle" speed="5.04" length="5.00" shape="602.48,314.87 601.12,314.72 600.03,315.04 599.23,315.83 598.70,317.10"/>
    </edge>
    <edge id=":1503717543_1" function="internal">
        <lane id=":1503717543_1_0" index="0" disallow="tram rail_urban rail rail_electric rail_fast ship" speed="8.33" length="9.37" shape="602.48,314.87 593.44,312.43"/>
    </edge>
    <edge id=":1503717543_2" function="internal">
        <lane id=":1503717543_2_0" index="0" disallow="tram rail_urban rail rail_electric rail_fast ship" speed="3.65" length="2.34" shape="602.48,314.87 601.52,313.80 601.33,312.92"/>
    </edge>
    <edge id=":1503717543_9" function="internal">
        <lane id=":1503717543_9_0" index="0" disallow="tram rail_urban rail rail_electric rail_fast ship" speed="3.65" length="2.34" shape="601.33,312.92 601.92,312.25 603.28,311.78"/>
    </edge>
    <edge id=":1503717543_3" function="internal">
        <lane id=":1503717543_3_0" index="0" disallow="tram rail_urban rail rail_electric rail_fast ship" speed="8.33" length="9.30" shape="594.30,309.35 603.28,311.78"/>
    </edge>
    <edge id=":1503717543_4" function="internal">
        <lane id=":1503717543_4_0" index="0" allow="pedestrian delivery bicycle" speed="6.90" length="5.03" shape="594.30,309.35 596.81,310.46 598.38,312.12"/>
    </edge>
    <edge id=":1503717543_5" function="internal">
        <lane id=":1503717543_5_0" index="0" disallow="tram rail_urban rail rail_electric rail_fast ship" speed="3.65" length="2.34" shape="594.30,309.35 595.24,310.44 595.41,311.32"/>
    </edge>
    <edge id=":1503717543_10" function="internal">
        <lane id=":1503717543_10_0" index="0" allow="pedestrian delivery bicycle" speed="6.90" length="5.08" shape="598.38,312.12 599.01,314.34 598.70,317.10"/>
    </edge>
    <edge id=":1503717543_11" function="internal">
        <lane id=":1503717543_11_0" index="0" disallow="tram rail_urban rail rail_electric rail_fast ship" speed="3.65" length="2.34" shape="595.41,311.32 594.81,311.98 593.44,312.43"/>
    </edge>
    <edge id=":1503717543_6" function="internal">
        <lane id=":1503717543_6_0" index="0" allow="pedestrian delivery bicycle" speed="5.09" length="5.04" shape="595.60,316.30 595.76,314.92 595.45,313.81 594.68,312.98 593.44,312.43"/>
    </edge>
    <edge id=":1503717543_7" function="internal">
        <lane id=":1503717543_7_0" index="0" allow="pedestrian delivery bicycle" speed="6.86" length="10.17" shape="595.60,316.30 596.67,313.73 598.31,312.11 600.51,311.46 603.28,311.78"/>
    </edge>
    <edge id=":1503717543_8" function="internal">
        <lane id=":1503717543_8_0" index="0" allow="pedestrian delivery bicycle" speed="3.65" length="4.67" shape="595.60,316.30 596.68,315.34 597.55,315.15 598.22,315.74 598.70,317.10"/>
    </edge>
    <edge id=":1503717567_0" function="internal">
        <lane id=":1503717567_0_0" index="0" allow="pedestrian delivery bicycle" speed="5.56" length="9.37" shape="593.14,352.50 584.02,350.35"/>
    </edge>
    <edge id=":1503717567_1" function="internal">
        <lane id=":1503717567_1_0" index="0" allow="pedestrian delivery bicycle" speed="5.56" length="10.17" shape="593.14,352.50 590.55,351.47 588.91,349.87 588.22,347.67 588.48,344.90"/>
    </edge>
    <edge id=":1503717567_2" function="internal">
        <lane id=":1503717567_2_0" index="0" allow="pedestrian delivery bicycle" speed="3.65" length="4.67" shape="593.14,352.50 592.16,351.44 591.96,350.57 592.53,349.88 593.88,349.39"/>
    </edge>
    <edge id=":1503717567_3" function="internal">
        <lane id=":1503717567_3_0" index="0" allow="pedestrian delivery bicycle" speed="5.04" length="5.00" shape="591.59,345.65 591.46,347.01 591.80,348.09 592.61,348.88 593.88,349.39"/>
    </edge>
    <edge id=":1503717567_4" function="internal">
        <lane id=":1503717567_4_0" index="0" allow="pedestrian delivery bicycle" speed="5.56" length="10.15" shape="591.59,345.65 590.57,348.24 588.96,349.88 586.78,350.59 584.02,350.35"/>
    </edge>
    <edge id=":1503717567_5" function="internal">
        <lane id=":1503717567_5_0" index="0" allow="pedestrian delivery bicycle" speed="3.65" length="4.67" shape="591.59,345.65 590.53,346.63 589.66,346.83 588.98,346.25 588.48,344.90"/>
    </edge>
    <edge id=":1503717567_6" function="internal">
        <lane id=":1503717567_6_0" index="0" allow="pedestrian delivery bicycle" speed="5.06" length="5.02" shape="584.74,347.23 586.10,347.35 587.18,347.00 587.97,346.18 588.48,344.90"/>
    </edge>
    <edge id=":1503717567_7" function="internal">
        <lane id=":1503717567_7_0" index="0" allow="pedestrian delivery bicycle" speed="5.56" length="9.39" shape="584.74,347.23 593.88,349.39"/>
    </edge>
    <edge id=":1503717567_8" function="internal">
        <lane id=":1503717567_8_0" index="0" allow="pedestrian delivery bicycle" speed="3.65" length="4.67" shape="584.74,347.23 585.73,348.28 585.94,349.15 585.37,349.84 584.02,350.35"/>
    </edge>
    <edge id=":1503717573_0" function="internal">
        <lane id=":1503717573_0_0" index="0" allow="pedestrian delivery bicycle" speed="3.65" length="4.67" shape="641.32,360.46 642.31,361.51 642.52,362.38 641.96,363.07 640.61,363.58"/>
    </edge>
    <edge id=":1503717929_0" function="internal">
        <lane id=":1503717929_0_0" index="0" disallow="tram rail_urban rail rail_electric rail_fast ship" speed="8.33" length="5.00" shape="747.47,412.57 746.29,417.43"/>
    </edge>
    <edge id=":1503717929_1" function="internal">
        <lane id=":1503717929_1_0" index="0" disallow="tram rail_urban rail rail_electric rail_fast ship" speed="3.65" length="4.67" shape="747.47,412.57 746.41,413.55 745.54,413.74 744.85,413.17 744.36,411.81"/>
    </edge>
    <edge id=":1503717929_2" function="internal">
        <lane id=":1503717929_2_0" index="0" disallow="tram rail_urban rail rail_electric rail_fast ship" speed="8.33" length="5.00" shape="743.18,416.67 744.36,411.81"/>
    </edge>
    <edge id=":1503717929_3" function="internal">
        <lane id=":1503717929_3_0" index="0" disallow="tram rail_urban rail rail_electric rail_fast ship" speed="3.65" length="4.67" shape="743.18,416.67 744.24,415.69 745.11,415.49 745.79,416.07 746.29,417.43"/>
    </edge>
    <edge id=":1503717940_0" function="internal">
        <lane id=":1503717940_0_0" index="0" allow="pedestrian delivery bicycle" speed="5.56" length="4.53" shape="669.81,415.49 668.38,416.17 667.31,416.83 666.61,417.49 666.28,418.14"/>
    </edge>
    <edge id=":1503717940_1" function="internal">
        <lane id=":1503717940_1_0" index="0" allow="pedestrian delivery bicycle" speed="5.56" length="9.52" shape="669.81,415.49 667.25,416.19 665.05,415.98 663.23,414.85 661.77,412.81"/>
    </edge>
    <edge id=":1503717940_2" function="internal">
        <lane id=":1503717940_2_0" index="0" allow="pedestrian delivery bicycle" speed="3.80" length="5.28" shape="669.81,415.49 668.54,414.48 668.17,413.54 668.69,412.68 670.12,411.89"/>
    </edge>
    <edge id=":1503717940_3" function="internal">
        <lane id=":1503717940_3_0" index="0" allow="pedestrian delivery bicycle" speed="5.56" length="7.39" shape="663.86,409.85 664.99,411.42 666.40,412.29 668.11,412.44 670.12,411.89"/>
    </edge>
    <edge id=":1503717940_4" function="internal">
        <lane id=":1503717940_4_0" index="0" allow="pedestrian delivery bicycle" speed="5.56" length="8.97" shape="663.86,409.85 665.20,412.18 666.17,413.86 666.59,415.61 666.28,418.14"/>
    </edge>
    <edge id=":1503717940_5" function="internal">
        <lane id=":1503717940_5_0" index="0" allow="pedestrian delivery bicycle" speed="3.81" length="5.29" shape="663.86,409.85 664.45,411.37 664.30,412.37 663.41,412.85 661.77,412.81"/>
    </edge>
    <edge id=":1503717940_6" function="internal">
        <lane id=":1503717940_6_0" index="0" allow="pedestrian delivery bicycle" speed="5.56" length="5.00" shape="663.16,417.41 663.33,416.01 663.08,415.04 662.53,414.11 661.77,412.81"/>
    </edge>
    <edge id=":1503717940_7" function="internal">
        <lane id=":1503717940_7_0" index="0" allow="pedestrian delivery bicycle" speed="5.56" length="9.14" shape="663.16,417.41 663.85,415.99 665.24,414.60 667.33,413.23 670.12,411.89"/>
    </edge>
    <edge id=":1503717940_8" function="internal">
        <lane id=":1503717940_8_0" index="0" allow="pedestrian delivery bicycle" speed="3.65" length="4.67" shape="663.16,417.41 664.21,416.43 665.08,416.22 665.77,416.79 666.28,418.14"/>
    </edge>
    <edge id=":1503718045_0" function="internal">
        <lane id=":1503718045_0_0" index="0" allow="pedestrian delivery bicycle" speed="5.56" length="5.00" shape="709.31,422.96 708.01,427.79"/>
    </edge>
    <edge id=":1503718045_1" function="internal">
        <lane id=":1503718045_1_0" index="0" allow="pedestrian delivery bicycle" speed="3.65" length="4.67" shape="709.31,422.96 708.22,423.91 707.35,424.09 706.68,423.50 706.22,422.13"/>
    </edge>
    <edge id=":1503718045_2" function="internal">
        <lane id=":1503718045_2_0" index="0" allow="pedestrian delivery bicycle" speed="5.56" length="5.00" shape="704.92,426.96 706.22,422.13"/>
    </edge>
    <edge id=":1503718045_3" function="internal">
        <lane id=":1503718045_3_0" index="0" allow="pedestrian delivery bicycle" speed="3.65" length="4.67" shape="704.92,426.96 706.01,426.01 706.88,425.83 707.55,426.42 708.01,427.79"/>
    </edge>
    <edge id=":1503718086_0" function="internal">
        <lane id=":1503718086_0_0" index="0" allow="pedestrian delivery bicycle" speed="5.06" length="5.02" shape="626.02,432.62 624.66,432.50 623.58,432.84 622.78,433.65 622.26,434.94"/>
    </edge>
    <edge id=":1503718086_1" function="internal">
        <lane id=":1503718086_1_0" index="0" allow="pedestrian delivery bicycle" speed="5.56" length="9.40" shape="626.02,432.62 616.89,430.41"/>
    </edge>
    <edge id=":1503718086_2" function="internal">
        <lane id=":1503718086_2_0" index="0" allow="pedestrian delivery bicycle" speed="3.65" length="4.67" shape="626.02,432.62 625.04,431.56 624.84,430.69 625.42,430.01 626.77,429.51"/>
    </edge>
    <edge id=":1503718086_3" function="internal">
        <lane id=":1503718086_3_0" index="0" allow="pedestrian delivery bicycle" speed="5.56" length="9.39" shape="617.65,427.30 626.77,429.51"/>
    </edge>
    <edge id=":1503718086_4" function="internal">
        <lane id=":1503718086_4_0" index="0" allow="pedestrian delivery bicycle" speed="5.56" length="10.19" shape="617.65,427.30 620.24,428.34 621.88,429.96 622.55,432.16 622.26,434.94"/>
    </edge>
    <edge id=":1503718086_5" function="internal">
        <lane id=":1503718086_5_0" index="0" allow="pedestrian delivery bicycle" speed="3.65" length="4.67" shape="617.65,427.30 618.63,428.36 618.82,429.23 618.25,429.92 616.89,430.41"/>
    </edge>
    <edge id=":1503718086_6" function="internal">
        <lane id=":1503718086_6_0" index="0" allow="pedestrian delivery bicycle" speed="5.03" length="5.01" shape="619.16,434.16 619.30,432.80 618.97,431.71 618.17,430.92 616.89,430.41"/>
    </edge>
    <edge id=":1503718086_7" function="internal">
        <lane id=":1503718086_7_0" index="0" allow="pedestrian delivery bicycle" speed="5.56" length="10.16" shape="619.16,434.16 620.21,431.58 621.82,429.94 624.01,429.25 626.77,429.51"/>
    </edge>
    <edge id=":1503718086_8" function="internal">
        <lane id=":1503718086_8_0" index="0" allow="pedestrian delivery bicycle" speed="3.65" length="4.67" shape="619.16,434.16 620.23,433.19 621.10,433.00 621.78,433.58 622.26,434.94"/>
    </edge>
    <edge id=":1503718141_0" function="internal">
        <lane id=":1503718141_0_0" index="0" allow="pedestrian delivery bicycle" speed="5.56" length="7.30" shape="661.31,442.56 659.64,441.22 658.35,440.50 656.91,440.05 654.80,439.56"/>
    </edge>
    <edge id=":1503718141_1" function="internal">
        <lane id=":1503718141_1_0" index="0" allow="pedestrian delivery bicycle" speed="5.56" length="4.21" shape="661.31,442.56 659.94,440.96 659.15,439.02"/>
    </edge>
    <edge id=":1503718141_2" function="internal">
        <lane id=":1503718141_2_0" index="0" allow="pedestrian delivery bicycle" speed="3.65" length="2.34" shape="661.31,442.56 660.93,441.17 661.15,440.31"/>
    </edge>
    <edge id=":1503718141_9" function="internal">
        <lane id=":1503718141_9_0" index="0" allow="pedestrian delivery bicycle" speed="5.56" length="4.91" shape="659.15,439.02 658.93,436.75 659.28,434.14"/>
    </edge>
    <edge id=":1503718141_10" function="internal">
        <lane id=":1503718141_10_0" index="0" allow="pedestrian delivery bicycle" speed="3.65" length="2.34" shape="661.15,440.31 661.98,439.97 663.41,440.15"/>
    </edge>
    <edge id=":1503718141_3" function="internal">
        <lane id=":1503718141_3_0" index="0" allow="pedestrian delivery bicycle" speed="5.56" length="5.64" shape="662.40,434.87 662.14,436.57 662.23,438.02 662.65,439.21 663.41,440.15"/>
    </edge>
    <edge id=":1503718141_4" function="internal">
        <lane id=":1503718141_4_0" index="0" allow="pedestrian delivery bicycle" speed="5.56" length="10.20" shape="662.40,434.87 661.39,437.48 659.78,439.13 657.59,439.82 654.80,439.56"/>
    </edge>
    <edge id=":1503718141_5" function="internal">
        <lane id=":1503718141_5_0" index="0" allow="pedestrian delivery bicycle" speed="3.65" length="4.67" shape="662.40,434.87 661.35,435.86 660.48,436.06 659.79,435.49 659.28,434.14"/>
    </edge>
    <edge id=":1503718141_6" function="internal">
        <lane id=":1503718141_6_0" index="0" allow="pedestrian delivery bicycle" speed="5.03" length="5.01" shape="655.55,436.45 656.92,436.58 658.00,436.24 658.78,435.43 659.28,434.14"/>
    </edge>
    <edge id=":1503718141_7" function="internal">
        <lane id=":1503718141_7_0" index="0" allow="pedestrian delivery bicycle" speed="5.56" length="8.84" shape="655.55,436.45 658.10,437.05 659.83,437.61 661.39,438.51 663.41,440.15"/>
    </edge>
    <edge id=":1503718141_8" function="internal">
        <lane id=":1503718141_8_0" index="0" allow="pedestrian delivery bicycle" speed="3.65" length="2.34" shape="655.55,436.45 656.53,437.51 656.73,438.38"/>
    </edge>
    <edge id=":1503718141_11" function="internal">
        <lane id=":1503718141_11_0" index="0" allow="pedestrian delivery bicycle" speed="3.65" length="2.34" shape="656.73,438.38 656.15,439.06 654.80,439.56"/>
    </edge>
    <edge id=":1503718194_0" function="internal">
        <lane id=":1503718194_0_0" index="0" allow="pedestrian delivery bicycle" speed="3.65" length="4.67" shape="618.83,448.72 617.76,449.69 616.89,449.88 616.21,449.30 615.72,447.95"/>
    </edge>
    <edge id=":1503718197_0" function="internal">
        <lane id=":1503718197_0_0" index="0" allow="pedestrian delivery bicycle" speed="5.56" length="5.15" shape="689.91,453.21 684.91,451.96"/>
    </edge>
    <edge id=":1503718197_1" function="internal">
        <lane id=":1503718197_1_0" index="0" allow="pedestrian delivery bicycle" speed="3.65" length="4.67" shape="689.91,453.21 688.93,452.14 688.74,451.27 689.32,450.59 690.68,450.10"/>
    </edge>
    <edge id=":1503718197_2" function="internal">
        <lane id=":1503718197_2_0" index="0" allow="pedestrian delivery bicycle" speed="5.56" length="5.15" shape="685.68,448.86 690.68,450.10"/>
    </edge>
    <edge id=":1503718197_3" function="internal">
        <lane id=":1503718197_3_0" index="0" allow="pedestrian delivery bicycle" speed="3.65" length="4.67" shape="685.68,448.86 686.65,449.93 686.85,450.80 686.27,451.48 684.91,451.96"/>
    </edge>
    <edge id=":1503718202_0" function="internal">
        <lane id=":1503718202_0_0" index="0" allow="pedestrian delivery bicycle" speed="5.56" length="9.40" shape="703.59,456.61 694.47,454.34"/>
    </edge>
    <edge id=":1503718202_1" function="internal">
        <lane id=":1503718202_1_0" index="0" allow="pedestrian delivery bicycle" speed="5.56" length="10.25" shape="703.59,456.61 700.98,455.55 699.36,453.91 698.71,451.70 699.05,448.90"/>
    </edge>
    <edge id=":1503718202_2" function="internal">
        <lane id=":1503718202_2_0" index="0" allow="pedestrian delivery bicycle" speed="3.65" length="4.67" shape="703.59,456.61 702.62,455.55 702.42,454.67 703.01,453.99 704.36,453.51"/>
    </edge>
    <edge id=":1503718202_3" function="internal">
        <lane id=":1503718202_3_0" index="0" allow="pedestrian delivery bicycle" speed="5.02" length="5.02" shape="702.14,449.73 701.97,451.10 702.29,452.18 703.09,452.99 704.36,453.51"/>
    </edge>
    <edge id=":1503718202_4" function="internal">
        <lane id=":1503718202_4_0" index="0" allow="pedestrian delivery bicycle" speed="5.56" length="10.16" shape="702.14,449.73 701.04,452.31 699.40,453.94 697.21,454.62 694.47,454.34"/>
    </edge>
    <edge id=":1503718202_5" function="internal">
        <lane id=":1503718202_5_0" index="0" allow="pedestrian delivery bicycle" speed="3.65" length="4.67" shape="702.14,449.73 701.05,450.68 700.18,450.86 699.51,450.27 699.05,448.90"/>
    </edge>
    <edge id=":1503718202_6" function="internal">
        <lane id=":1503718202_6_0" index="0" allow="pedestrian delivery bicycle" speed="5.10" length="5.07" shape="695.24,451.24 696.60,451.37 697.68,451.02 698.50,450.20 699.05,448.90"/>
    </edge>
    <edge id=":1503718202_7" function="internal">
        <lane id=":1503718202_7_0" index="0" allow="pedestrian delivery bicycle" speed="5.56" length="9.40" shape="695.24,451.24 704.36,453.51"/>
    </edge>
    <edge id=":1503718202_8" function="internal">
        <lane id=":1503718202_8_0" index="0" allow="pedestrian delivery bicycle" speed="3.65" length="4.67" shape="695.24,451.24 696.21,452.30 696.41,453.18 695.83,453.86 694.47,454.34"/>
    </edge>
    <edge id=":1503718238_0" function="internal">
        <lane id=":1503718238_0_0" index="0" disallow="tram rail_urban rail rail_electric rail_fast ship" speed="8.33" length="9.26" shape="736.35,458.26 734.29,467.28"/>
    </edge>
    <edge id=":1503718238_1" function="internal">
        <lane id=":1503718238_1_0" index="0" allow="pedestrian delivery bicycle" speed="6.86" length="5.09" shape="736.35,458.26 735.32,460.85 733.70,462.49"/>
    </edge>
    <edge id=":1503718238_2" function="internal">
        <lane id=":1503718238_2_0" index="0" disallow="tram rail_urban rail rail_electric rail_fast ship" speed="3.65" length="2.34" shape="736.35,458.26 735.29,459.24 734.42,459.44"/>
    </edge>
    <edge id=":1503718238_9" function="internal">
        <lane id=":1503718238_9_0" index="0" allow="pedestrian delivery bicycle" speed="6.86" length="5.09" shape="733.70,462.49 731.50,463.16 728.72,462.87"/>
    </edge>
    <edge id=":1503718238_10" function="internal">
        <lane id=":1503718238_10_0" index="0" disallow="tram rail_urban rail rail_electric rail_fast ship" speed="3.65" length="2.34" shape="734.42,459.44 733.74,458.86 733.25,457.50"/>
    </edge>
    <edge id=":1503718238_3" function="internal">
        <lane id=":1503718238_3_0" index="0" allow="pedestrian delivery bicycle" speed="5.03" length="5.01" shape="729.49,459.77 730.86,459.91 731.94,459.58 732.74,458.78 733.25,457.50"/>
    </edge>
    <edge id=":1503718238_4" function="internal">
        <lane id=":1503718238_4_0" index="0" allow="pedestrian delivery bicycle" speed="6.93" length="10.09" shape="729.49,459.77 732.07,460.81 733.73,462.41 734.47,464.56 734.29,467.28"/>
    </edge>
    <edge id=":1503718238_5" function="internal">
        <lane id=":1503718238_5_0" index="0" allow="pedestrian delivery bicycle" speed="3.65" length="4.67" shape="729.49,459.77 730.47,460.84 730.66,461.71 730.08,462.39 728.72,462.87"/>
    </edge>
    <edge id=":1503718238_6" function="internal">
        <lane id=":1503718238_6_0" index="0" allow="pedestrian delivery bicycle" speed="5.12" length="5.06" shape="731.16,466.62 731.25,465.27 730.87,464.19 730.03,463.40 728.72,462.87"/>
    </edge>
    <edge id=":1503718238_7" function="internal">
        <lane id=":1503718238_7_0" index="0" disallow="tram rail_urban rail rail_electric rail_fast ship" speed="8.33" length="9.35" shape="731.16,466.62 733.25,457.50"/>
    </edge>
    <edge id=":1503718238_8" function="internal">
        <lane id=":1503718238_8_0" index="0" disallow="tram rail_urban rail rail_electric rail_fast ship" speed="3.65" length="2.34" shape="731.16,466.62 732.19,465.61 733.06,465.39"/>
    </edge>
    <edge id=":1503718238_11" function="internal">
        <lane id=":1503718238_11_0" index="0" disallow="tram rail_urban rail rail_electric rail_fast ship" speed="3.65" length="2.34" shape="733.06,465.39 733.76,465.94 734.29,467.28"/>
    </edge>
    <edge id=":1503718246_0" function="internal">
        <lane id=":1503718246_0_0" index="0" allow="pedestrian delivery bicycle" speed="3.65" length="4.67" shape="668.83,465.26 668.31,463.92 668.44,463.03 669.22,462.61 670.66,462.64"/>
    </edge>
    <edge id=":1503718292_0" function="internal">
        <lane id=":1503718292_0_0" index="0" disallow="tram rail_urban rail rail_electric rail_fast ship" speed="8.33" length="9.22" shape="729.65,485.80 727.32,494.72"/>
    </edge>
    <edge id=":1503718292_1" function="internal">
        <lane id=":1503718292_1_0" index="0" allow="pedestrian delivery bicycle" speed="6.94" length="4.99" shape="729.65,485.80 728.54,488.28 726.89,489.85"/>
    </edge>
    <edge id=":1503718292_2" function="internal">
        <lane id=":1503718292_2_0" index="0" disallow="tram rail_urban rail rail_electric rail_fast ship" speed="3.65" length="2.34" shape="729.65,485.80 728.55,486.74 727.67,486.91"/>
    </edge>
    <edge id=":1503718292_9" function="internal">
        <lane id=":1503718292_9_0" index="0" allow="pedestrian delivery bicycle" speed="6.94" length="5.08" shape="726.89,489.85 724.68,490.50 721.91,490.24"/>
    </edge>
    <edge id=":1503718292_10" function="internal">
        <lane id=":1503718292_10_0" index="0" disallow="tram rail_urban rail rail_electric rail_fast ship" speed="3.65" length="2.34" shape="727.67,486.91 727.01,486.31 726.57,484.94"/>
    </edge>
    <edge id=":1503718292_3" function="internal">
        <lane id=":1503718292_3_0" index="0" allow="pedestrian delivery bicycle" speed="5.14" length="5.07" shape="722.65,487.13 724.05,487.26 725.18,486.94 726.01,486.17 726.57,484.94"/>
    </edge>
    <edge id=":1503718292_4" function="internal">
        <lane id=":1503718292_4_0" index="0" allow="pedestrian delivery bicycle" speed="6.86" length="10.18" shape="722.65,487.13 725.25,488.14 726.89,489.75 727.59,491.94 727.32,494.72"/>
    </edge>
    <edge id=":1503718292_5" function="internal">
        <lane id=":1503718292_5_0" index="0" allow="pedestrian delivery bicycle" speed="3.65" length="4.67" shape="722.65,487.13 723.63,488.18 723.84,489.05 723.27,489.74 721.91,490.24"/>
    </edge>
    <edge id=":1503718292_6" function="internal">
        <lane id=":1503718292_6_0" index="0" allow="pedestrian delivery bicycle" speed="5.04" length="5.00" shape="724.21,493.97 724.34,492.61 724.00,491.53 723.19,490.74 721.91,490.24"/>
    </edge>