<?xml version="1.0" encoding="UTF-8"?>

<!-- generated on 09/28/21 16:32:43 by Eclipse SUMO polyconvert Version 1.7.0
<configuration xmlns:xsi="http://www.w3.org/2001/XMLSchema-instance" xsi:noNamespaceSchemaLocation="http://sumo.dlr.de/xsd/polyconvertConfiguration.xsd">

    <input>
        <net-file value="osm.net.xml"/>
        <osm-files value="osm_bbox.osm.xml"/>
        <osm.keep-full-type value="true"/>
        <type-file value="C:\Program%20Files%20(x86)\Eclipse\Sumo\data\typemap\osmPolyconvert.typ.xml"/>
    </input>

    <output>
        <output-file value="osm.poly.xml"/>
    </output>

    <processing>
        <poi-layer-offset value="5"/>
    </processing>

    <report>
        <verbose value="true"/>
    </report>

</configuration>
-->

<additional xmlns:xsi="http://www.w3.org/2001/XMLSchema-instance" xsi:noNamespaceSchemaLocation="http://sumo.dlr.de/xsd/additional_file.xsd">
    <location netOffset="-390616.10,-5820336.67" convBoundary="-1627.93,-4955.81,1923.98,2922.52" origBoundary="13.365446,52.477280,13.415956,52.548335" projParameter="+proj=utm +zone=33 +ellps=WGS84 +datum=WGS84 +units=m +no_defs"/>

    <poly id="100575040" type="leisure.park" color="207,245,201" fill="1" layer="-2.00" shape="727.566765,285.168671 726.673399,284.977070 720.668861,283.541319 714.717356,282.048760 721.754440,255.386578 729.817805,226.643027 706.857144,220.854317 708.736242,208.883793 700.086132,207.517906 694.860830,209.392050 690.133612,212.301141 692.759575,218.385306 684.812986,221.499394 678.556074,223.986220 676.206025,218.407808 665.953460,223.431435 667.522669,225.021230 667.084357,227.289871 665.055135,228.214007 664.455391,231.465464 658.174096,229.490678 658.442952,228.149392 646.814850,231.133862 638.123663,233.418862 637.364531,234.993590 633.728036,235.975689 631.688034,234.885976 627.770260,221.675461 628.430140,221.438253 627.594890,218.363320 625.958969,213.770557 614.571197,219.019804 602.000851,224.807220 598.852569,226.379392 596.481536,229.636827 599.739969,235.161640 594.447545,237.983234 595.074783,239.026425 592.468732,247.285394 589.996997,255.174169 587.923491,261.741036 583.951062,260.126768 579.528734,263.006941 597.402656,279.957807 603.054730,281.412366 610.953987,283.506927 617.813948,285.257373 623.582074,286.742761 628.579428,288.056104 634.361362,289.552325 650.806248,293.816226 667.458685,297.953169 684.261322,302.131344 690.186173,303.646712 695.510345,305.008506 701.250793,306.472343 707.878557,308.161300 712.916567,309.473826 719.447868,311.098174 720.512798,311.374988 722.370848,304.267709 727.566765,285.168671"/>
    <poly id="100575042" type="building.residential" color="255,230,230" fill="1" layer="-1.00" shape="695.640262,328.596205 701.250793,306.472343 695.510345,305.008506 694.895158,307.258815 695.339559,307.404738 693.962305,312.932360 694.389199,313.512648 693.688390,314.351649 692.389602,313.935373 692.527488,313.420441 688.738556,312.425166 688.599319,313.184936 686.865382,312.733810 686.672827,311.703215 687.567906,311.360644 688.838588,305.924407 689.555574,306.119917 690.186173,303.646712 684.261322,302.131344 682.140759,310.557527 678.724494,324.209081 695.640262,328.596205"/>
    <poly id="105210564" type="leisure.playground" color="207,245,201" fill="1" layer="-2.00" shape="872.730049,540.900539 866.683380,527.136148 853.885279,532.727689 859.931978,546.492065 872.730049,540.900539"/>
    <poly id="105678678" type="tourism.attraction" color="207,245,201" fill="1" layer="-2.00" shape="883.551215,418.835530 887.422356,416.501972 891.871599,413.610354 898.556422,424.011224 896.701515,425.142829 901.909144,433.506695 901.198462,433.900780 902.712753,436.081626 905.818691,434.132247 912.052901,444.721159 903.713679,450.013485 906.981381,455.059795 915.273590,450.402790 912.482845,445.134484 915.083824,443.674784 914.286336,443.213963 907.939026,432.727703 914.980991,428.309822 909.179033,419.157920 906.586595,418.859269 901.318867,422.180729 894.887390,411.573945 886.057385,397.782178 885.451072,396.760744 883.462457,397.984337 881.060405,399.539793 879.303914,400.825009 878.750227,401.872148 874.761773,404.731310 877.227975,408.827261 871.932498,412.427558 870.131925,409.885853 857.016724,418.945092 858.382173,420.839907 859.091128,420.367961 865.240001,429.857074 866.898983,432.134852 865.348608,433.226337 867.235391,435.677108 880.685178,426.710629 871.774128,412.631365 871.974679,412.493389 877.256342,408.882270 883.551215,418.835530"/>
    <poly id="109089263" type="building.residential" color="255,230,230" fill="1" layer="-1.00" shape="781.426169,159.856305 783.146789,177.455429 784.887055,177.272175 786.036835,190.555314 785.374231,190.670158 784.053694,197.843379 789.684090,198.931423 797.767615,162.197924 797.259315,161.619431 798.077721,159.041930 795.750203,159.371733 795.215137,158.504516 781.426169,159.856305"/>
    <poly id="109089264" type="building.residential" color="255,230,230" fill="1" layer="-1.00" shape="763.519520,192.212012 769.157945,192.131454 769.147337,191.653202 774.535497,191.611585 774.545364,192.056471 779.872962,192.038458 778.226832,174.126109 776.979451,173.274692 764.053567,174.062136 762.695547,175.260660 763.519520,192.212012"/>
    <poly id="113589278" type="leisure.playground" color="207,245,201" fill="1" layer="-2.00" shape="620.441705,264.835426 618.488665,263.688150 617.801423,260.554293 618.744884,257.195045 620.900583,254.632317 624.595835,251.712694 628.602331,250.277264 632.202936,249.818957 634.974582,250.235891 636.799867,252.354116 637.442046,254.376212 635.526508,257.668022 633.063193,260.437873 631.214721,262.470773 628.455109,264.123316 625.224812,265.363464 622.534961,265.267421 620.441705,264.835426"/>
    <poly id="129400887" type="building.residential" color="255,230,230" fill="1" layer="-1.00" shape="438.382972,159.609088 447.019990,187.836959 429.770671,193.506360 427.587403,187.201049 428.574495,186.722852 429.486426,185.612052 429.538240,183.975134 428.784642,182.745605 427.597802,182.482693 425.938706,182.653141 418.789802,162.437482 438.382972,159.609088"/>
    <poly id="129400888" type="building.residential" color="255,230,230" fill="1" layer="-1.00" shape="451.837649,202.117838 460.769150,227.724180 443.558664,234.828142 434.613823,208.320784 451.837649,202.117838"/>
    <poly id="131650083" type="building.residential" color="255,230,230" fill="1" layer="-1.00" shape="653.736018,528.444196 656.051885,519.345997 663.777941,521.299816 661.718976,530.659370 653.736018,528.444196"/>
    <poly id="131650084" type="building.hospital" color="255,230,230" fill="1" layer="-1.00" shape="703.274619,493.360555 705.638458,484.584020 706.278288,482.221888 708.304349,482.688789 719.549739,485.421414 718.850826,487.873877 716.364369,496.630871 703.274619,493.360555"/>
    <poly id="131650085" type="building.residential" color="255,230,230" fill="1" layer="-1.00" shape="672.336885,533.561604 677.668291,511.722083 681.910578,512.662769 681.466120,514.653356 682.097011,515.863390 680.497993,522.709004 679.259466,523.170479 679.697339,524.551713 686.540540,526.480657 683.847739,536.944780 672.336885,533.561604"/>
    <poly id="137000584" type="building.residential" color="255,230,230" fill="1" layer="-1.00" shape="673.932288,355.673149 677.014279,342.863583 685.458568,345.057435 693.718209,347.188635 689.898718,365.912207 684.822031,364.689586 683.671354,362.689901 684.681791,358.372203 683.946658,357.053206 683.446029,357.431532 681.302863,356.889344 681.416939,356.219154 679.745824,357.068570 673.932288,355.673149"/>
    <poly id="137000585" type="building.residential" color="255,230,230" fill="1" layer="-1.00" shape="733.702218,380.596623 735.316902,373.227686 736.062119,373.166639 735.126568,371.073148 730.933752,369.919890 729.528431,370.819029 730.222473,371.816243 729.169944,376.379672 731.468626,376.896174 730.687304,379.917972 724.487637,378.553315 729.576870,356.485564 739.454322,359.037174 749.325226,361.600076 750.893632,364.380570 746.144461,383.425163 740.517344,382.170188 733.702218,380.596623"/>
    <poly id="137000586" type="building.residential" color="255,230,230" fill="1" layer="-1.00" shape="718.301039,377.166122 719.415956,371.744477 720.084084,371.573863 720.609142,371.684615 720.969768,370.196637 721.826111,369.943953 722.033189,369.182678 721.312010,368.186068 714.141884,366.520259 712.580046,367.400622 712.915545,368.450301 712.557143,370.038379 714.018723,370.451047 712.952038,375.905005 707.023213,374.512105 711.255149,351.740064 720.538738,354.137901 729.576870,356.485564 724.487637,378.553315 723.028035,378.229622 718.301039,377.166122"/>
    <poly id="137000587" type="building.residential" color="255,230,230" fill="1" layer="-1.00" shape="689.000522,370.394327 689.898718,365.912207 693.718209,347.188635 702.517457,349.474786 711.255149,351.740064 707.023213,374.512105 689.000522,370.394327"/>
    <poly id="137000588" type="building.residential" color="255,230,230" fill="1" layer="-1.00" shape="653.948045,361.947749 659.648592,338.386365 668.467978,340.660882 677.014279,342.863583 673.932288,355.673149 672.490332,361.647320 671.332525,366.357760 670.793898,366.247315 653.948045,361.947749"/>
    <poly id="137000589" type="building.residential" color="255,230,230" fill="1" layer="-1.00" shape="664.513703,361.868932 661.558833,361.144478 660.776819,359.548335 661.649354,355.745564 661.247388,355.676596 661.959847,352.611804 661.625339,352.218637 661.938841,351.054402 668.981354,352.778607 668.744447,354.030162 667.990599,354.313963 667.650368,357.025532 666.957197,356.985284 666.135353,360.931587 664.513703,361.868932"/>
    <poly id="137000591" type="building.hospital" color="255,230,230" fill="1" layer="-1.00" shape="656.320265,456.246319 658.231913,448.503544 676.240537,452.610385 676.432061,451.760432 692.592189,455.452139 692.400662,456.302091 705.968448,459.394856 707.256484,460.857371 706.376165,464.615796 709.188759,465.354559 709.749532,462.793884 709.340791,462.725063 710.371081,458.384673 710.835325,458.507901 711.618713,455.274628 712.280008,452.656084 721.023310,454.876738 727.480786,456.547239 723.219446,472.487556 709.702275,469.226706 689.982056,464.445572 674.280767,460.632411 661.929935,457.635115 656.320265,456.246319"/>
    <poly id="137004051" type="building.hospital" color="255,230,230" fill="1" layer="-1.00" shape="607.358271,337.956454 606.967377,337.163947 605.718453,337.770329 606.962679,340.313174 605.986112,344.930584 612.443393,346.278243 613.450920,341.526615 615.672365,340.397888 615.033666,339.143524 613.906354,339.724948 607.358271,337.956454"/>
    <poly id="137004052" type="building.residential" color="255,230,230" fill="1" layer="-1.00" shape="645.937935,368.913483 649.650758,352.729341 651.793930,353.271514 651.455766,354.547574 653.599430,355.111993 652.030962,361.500703 651.116004,365.226524 649.962286,369.814475 645.937935,368.913483"/>
    <poly id="137004053" type="building.residential" color="255,230,230" fill="1" layer="-1.00" shape="700.220473,370.134147 696.773979,369.275926 695.600135,368.066814 696.966756,362.060940 696.212274,361.398901 696.498896,360.246393 697.815060,360.528752 698.246887,361.331484 701.632332,362.191062 702.434031,361.616886 703.576041,362.003261 703.503780,363.028607 702.756963,363.323374 701.438068,369.339315 700.220473,370.134147"/>
    <poly id="137004054" type="building.hospital" color="255,230,230" fill="1" layer="-1.00" shape="618.394508,344.699456 622.387621,328.609214 655.723751,337.383006 659.648592,338.386365 653.948045,361.947749 652.030962,361.500703 653.599430,355.111993 651.455766,354.547574 651.793930,353.271514 649.650758,352.729341 622.341186,345.769066 618.394508,344.699456"/>
    <poly id="137004057" type="building.hospital" color="255,230,230" fill="1" layer="-1.00" shape="587.270006,336.800372 586.964787,338.031194 583.061021,337.060807 587.302889,319.952390 595.819907,322.055454 604.684865,324.239824 600.748164,340.117404 591.814901,337.912304 587.270006,336.800372"/>
    <poly id="137010402" type="building.hospital" color="255,230,230" fill="1" layer="-1.00" shape="661.441589,497.994778 663.335723,490.686371 665.351735,483.976151 670.086413,485.083937 677.870112,486.880713 676.645489,491.637148 675.243787,492.391565 674.394672,494.802859 674.909012,495.959842 678.342349,496.840593 677.350227,501.981333 661.441589,497.994778"/>
    <poly id="137010403" type="amenity.place_of_worship" color="237,199,199" fill="1" layer="-1.00" shape="647.050013,431.826713 646.869837,432.576266 645.941835,432.352067 646.122011,431.602514 643.863551,431.062904 646.652131,419.105530 649.107814,419.663016 649.312655,418.801639 650.213278,419.015320 650.015220,419.876546 652.982637,420.556202 653.187726,419.705947 654.237341,419.905192 654.357815,418.912157 653.755655,418.079828 654.290193,417.700746 655.070457,418.607014 657.382695,419.123179 658.169084,418.471442 658.787396,419.114243 657.732264,420.194798 658.040853,420.032159 658.567504,419.909188 659.126230,420.008058 659.531139,419.598472 660.111088,420.041828 659.700629,420.507175 659.849012,420.770944 659.950157,421.046889 659.997280,421.335161 659.983597,421.635911 659.915398,421.926744 659.799467,422.207509 659.628280,422.444991 659.415897,422.661132 659.168361,422.822415 658.892703,422.939812 658.602984,423.035267 656.136006,433.583410 655.726274,433.470104 655.459524,434.599919 654.456904,434.377375 654.610193,433.639547 651.519445,432.906991 651.339022,433.645421 650.472566,433.442110 650.652742,432.692557 647.050013,431.826713"/>
    <poly id="137010403#1" type="building.chapel" color="255,230,230" fill="1" layer="-1.00" shape="647.050013,431.826713 646.869837,432.576266 645.941835,432.352067 646.122011,431.602514 643.863551,431.062904 646.652131,419.105530 649.107814,419.663016 649.312655,418.801639 650.213278,419.015320 650.015220,419.876546 652.982637,420.556202 653.187726,419.705947 654.237341,419.905192 654.357815,418.912157 653.755655,418.079828 654.290193,417.700746 655.070457,418.607014 657.382695,419.123179 658.169084,418.471442 658.787396,419.114243 657.732264,420.194798 658.040853,420.032159 658.567504,419.909188 659.126230,420.008058 659.531139,419.598472 660.111088,420.041828 659.700629,420.507175 659.849012,420.770944 659.950157,421.046889 659.997280,421.335161 659.983597,421.635911 659.915398,421.926744 659.799467,422.207509 659.628280,422.444991 659.415897,422.661132 659.168361,422.822415 658.892703,422.939812 658.602984,423.035267 656.136006,433.583410 655.726274,433.470104 655.459524,434.599919 654.456904,434.377375 654.610193,433.639547 651.519445,432.906991 651.339022,433.645421 650.472566,433.442110 650.652742,432.692557 647.050013,431.826713"/>
    <poly id="137010404" type="building.hospital" color="255,230,230" fill="1" layer="-1.00" shape="639.379372,452.238242 642.852386,438.095774 646.822413,438.997968 645.884427,443.213918 647.611786,443.676302 648.865363,442.669231 648.529624,442.220453 649.252618,441.770420 649.755608,442.415781 650.156942,442.150933 650.585559,442.809073 649.990218,443.200633 651.756239,445.709645 652.339741,445.396241 652.887877,446.240897 652.231238,446.622691 652.604104,447.215304 652.056002,447.594687 651.729138,446.934287 650.267609,447.745678 649.843869,449.446489 653.857798,450.492373 652.724337,455.380321 646.529052,453.904392 639.379372,452.238242"/>
    <poly id="137010405" type="building.hospital" color="255,230,230" fill="1" layer="-1.00" shape="599.653419,477.189775 598.395031,477.673967 597.390990,481.969290 595.248855,481.471629 590.217767,480.159075 594.234821,463.934736 599.585493,465.273577 599.803890,464.411896 608.969539,466.700861 608.751140,467.562542 614.899925,469.083966 612.399014,486.042413 607.922589,484.951200 602.851166,483.350211 603.936119,479.030836 603.118231,477.958498 599.653419,477.189775"/>
    <poly id="137010407" type="building.hospital" color="255,230,230" fill="1" layer="-1.00" shape="636.978027,465.433318 637.750231,461.087515 639.379372,452.238242 646.529052,453.904392 643.665421,467.065220 636.978027,465.433318"/>
    <poly id="137010408" type="building.residential" color="255,230,230" fill="1" layer="-1.00" shape="708.304349,482.688789 709.271122,478.850553 708.221276,478.640174 708.808193,476.034408 709.592495,476.206170 709.913641,474.774705 708.446295,474.406678 709.702275,469.226706 723.219446,472.487556 719.549739,485.421414 708.304349,482.688789"/>
    <poly id="137010409" type="building.hospital" color="255,230,230" fill="1" layer="-1.00" shape="658.909256,470.754909 660.636396,463.261040 661.929935,457.635115 674.280767,460.632411 673.533661,463.664589 672.903343,466.148919 671.000308,473.668944 670.393611,473.548883 658.909256,470.754909"/>
    <poly id="137010410" type="building.hospital" color="255,230,230" fill="1" layer="-1.00" shape="634.043594,481.210721 634.909641,476.506749 636.978027,465.433318 643.665421,467.065220 658.909256,470.754909 670.393611,473.548883 668.990412,478.821156 642.735861,472.271345 641.549502,472.943095 640.406806,477.719976 640.925318,477.841992 639.830850,482.651185 634.043594,481.210721"/>
    <poly id="137010411" type="building.hospital" color="255,230,230" fill="1" layer="-1.00" shape="620.011753,447.449554 623.368046,433.554470 627.796287,434.613386 626.745960,438.965368 636.175707,441.226263 637.257243,436.751187 642.852386,438.095774 639.379372,452.238242 620.011753,447.449554"/>
    <poly id="137012032" type="building.hospital" color="255,230,230" fill="1" layer="-1.00" shape="600.853905,397.422411 604.404196,383.400601 623.321262,387.754139 622.180649,392.319552 629.507539,394.015127 629.472024,394.249596 629.341425,394.786624 628.761851,394.665965 628.568110,395.415820 629.359953,395.620785 628.492372,399.033985 620.960004,397.253955 619.826426,401.830340 600.853905,397.422411"/>
    <poly id="137017734" type="building.residential" color="255,230,230" fill="1" layer="-1.00" shape="575.359545,506.650335 577.917813,495.944327 578.559421,493.359582 587.438255,495.265412 588.788798,489.460155 587.471672,489.133337 586.943632,488.277113 588.167156,482.864146 587.853878,482.815469 588.594392,479.794551 590.217767,480.159075 595.248855,481.471629 588.649291,510.060527 575.359545,506.650335"/>
    <poly id="137085435" type="building.hospital" color="255,230,230" fill="1" layer="-1.00" shape="651.116004,365.226524 652.030962,361.500703 653.948045,361.947749 670.793898,366.247315 712.952038,375.905005 718.301039,377.166122 723.028035,378.229622 722.197385,381.475069 651.116004,365.226524"/>
    <poly id="137085436" type="landuse.basin" color="194,194,130" fill="1" layer="-3.00" shape="668.618120,410.394448 670.490878,409.763103 671.756918,408.399677 672.238629,406.252476 671.528891,404.243004 669.877230,402.910975 667.794278,402.634521 665.745274,403.581354 664.699768,405.095671 664.455356,406.926031 665.329138,408.987498 666.689465,410.036675 668.618120,410.394448"/>
    <poly id="137085442" type="building.residential" color="255,230,230" fill="1" layer="-1.00" shape="591.806656,432.541964 593.359745,426.687699 602.891287,428.946270 601.370758,435.044617 591.806656,432.541964"/>
    <poly id="137085444" type="building.hospital" color="255,230,230" fill="1" layer="-1.00" shape="598.812511,445.450162 601.370758,435.044617 602.891287,428.946270 617.357632,432.764385 613.127349,449.171479 598.812511,445.450162"/>
    <poly id="137105013" type="leisure.park" color="207,245,201" fill="1" layer="-2.00" shape="662.572652,438.592581 668.332162,443.672434 697.492671,450.881177 709.385050,407.230567 703.974039,405.926327 686.147462,408.803493 678.610482,408.648113 677.737074,412.105943 675.053170,415.025332 671.502797,417.129387 667.240352,417.424322 662.572652,438.592581"/>
    <poly id="147686950" type="building.residential" color="255,230,230" fill="1" layer="-1.00" shape="993.544794,214.533449 971.670656,222.551076 970.098827,218.079194 992.092248,210.236962 993.544794,214.533449"/>
    <poly id="147686951" type="building.apartments" color="255,230,230" fill="1" layer="-1.00" shape="970.098827,218.079194 971.670656,222.551076 964.494343,224.902101 957.283982,227.554336 950.216716,229.925223 944.535469,232.054003 943.379044,227.339249 946.017632,226.346098 970.098827,218.079194"/>
    <poly id="147686963" type="building.residential" color="255,230,230" fill="1" layer="-1.00" shape="1016.113415,201.704556 1019.288868,209.635031 1019.990117,211.266399 1009.017685,215.058933 1008.426206,213.480776 1007.282749,209.655932 993.544794,214.533449 992.092248,210.236962 1003.493433,206.190092 1016.113415,201.704556"/>
    <poly id="147686966" type="building.residential" color="255,230,230" fill="1" layer="-1.00" shape="898.716230,153.061342 900.350428,152.991755 911.813977,152.982616 913.298671,166.080312 913.271658,178.955560 913.419745,193.607347 899.931465,194.128700 899.949733,179.328568 907.642716,179.158144 907.323945,167.525721 901.285981,167.648352 899.458881,167.588681 898.716230,153.061342"/>
    <poly id="154321042" type="building.yes" color="255,230,230" fill="1" layer="-1.00" shape="772.064424,145.687048 788.470076,144.188184 783.953090,130.567997 770.509904,138.944804 772.064424,145.687048"/>
    <poly id="162018681" type="building.residential" color="255,230,230" fill="1" layer="-1.00" shape="840.169675,120.942493 841.429978,123.907887 840.909207,124.297769 841.562902,126.842632 849.626624,126.552626 868.233191,126.051248 868.031574,123.385088 867.563231,123.384339 866.419270,119.848852 863.241392,119.785745 860.584226,115.961093 856.311386,109.980108 844.080876,118.875084 843.238909,119.472383 843.050317,119.231755 840.169675,120.942493"/>
    <poly id="166693290" type="building.residential" color="255,230,230" fill="1" layer="-1.00" shape="381.416053,495.863863 380.570104,499.020696 375.625688,515.321522 349.736475,506.294798 353.820888,495.265351 364.722057,498.683620 366.700621,491.528990 381.416053,495.863863"/>
    <poly id="170013760" type="building.yes" color="255,230,230" fill="1" layer="-1.00" shape="909.736035,138.228920 920.568972,137.632882 920.420007,132.439586 907.416207,123.280286 902.958814,125.203957 903.372622,125.806809 908.193812,130.807583 909.736035,138.228920"/>
    <poly id="172283309" type="building.residential" color="255,230,230" fill="1" layer="-1.00" shape="521.636014,329.034307 516.878480,323.854448 532.012327,310.053545 532.765247,310.949275 535.312249,308.589233 535.181922,307.000877 532.728548,304.718609 536.192320,301.770678 539.619954,298.723405 546.455907,306.416447 521.636014,329.034307"/>
    <poly id="172283959" type="building.commercial" color="255,230,230" fill="1" layer="-1.00" shape="343.191640,422.382169 352.956438,417.735914 353.176142,418.153873 362.672690,414.871185 365.545568,422.885902 347.775251,430.414419 346.538215,430.942711 345.012414,427.037496 343.191640,422.382169"/>
    <poly id="182814027" type="tourism.attraction" color="207,245,201" fill="1" layer="-2.00" shape="1070.999273,73.635576 1071.290902,77.000788 1013.303786,118.910586 999.646006,128.649066 990.182374,133.153792 981.639298,134.477918 974.026177,134.579689 966.301384,132.703230 964.168302,131.392889 991.799059,111.441429 992.035846,109.566750 992.034069,107.953287 972.067455,89.945708 954.896764,74.068436 939.921932,61.113666 923.849380,47.326425 915.949671,40.624531 913.286540,38.368976 907.994683,33.879364 907.047025,33.076912 900.190729,28.744366 894.944992,23.886534 889.810255,19.137525 910.970312,22.051566 941.436157,29.878318 942.829234,30.259191 943.957484,30.634801 1034.151081,63.846127 1035.536116,59.876312 1052.202180,65.839201 1054.282750,66.616618 1056.363320,67.394035 1070.999273,73.635576"/>
    <poly id="188228158" type="landuse.residential" color="235,235,227" fill="1" layer="-3.00" shape="509.525133,640.543988 509.005186,640.967273 508.532017,641.968157 508.491532,643.504673 509.385305,645.242968 510.724512,646.259187 511.652482,646.483361 512.619312,644.792714 646.613728,699.745513 646.310044,702.267106 656.547773,706.401778 657.610399,706.578478 658.257142,706.363818 659.641260,705.431742 661.208437,701.435499 658.729696,700.444545 675.966879,648.451788 677.785672,648.756362 680.789823,639.175530 679.067096,638.612885 690.293243,605.948837 691.914230,606.513744 697.933405,588.141926 696.475097,587.873852 703.963523,558.642236 705.879784,559.055935 706.476434,556.583484 705.833704,554.839584 704.701462,553.362484 701.761385,552.381747 700.802864,554.450508 685.591744,550.081187 669.318922,545.579698 656.078168,541.923396 640.461934,537.652229 638.486395,539.153826 628.762892,546.880953 618.090864,554.985256 606.143390,564.330832 615.076599,576.328273 620.722731,583.335667 627.540952,592.086328 630.923414,596.484509 610.799265,612.910845 597.827089,623.169425 576.141574,640.787879 568.228715,647.217475 564.845205,649.796396 553.695644,639.150246 549.078283,636.292927 548.057001,637.061182 540.412590,632.668779 532.132953,622.904726 509.525133,640.543988"/>
    <poly id="188228164" type="landuse.residential" color="235,235,227" fill="1" layer="-3.00" shape="291.977559,442.506744 296.153302,443.804669 301.350543,445.257883 321.846545,451.021679 326.722465,452.370800 326.499160,453.010051 345.500333,458.395515 345.609062,457.792200 348.785213,458.700705 362.803239,462.494673 374.149462,465.780652 387.799055,469.794317 388.349959,470.761288 388.860409,471.740287 381.416053,495.863863 380.570104,499.020696 375.625688,515.321522 371.726290,528.260788 367.981642,540.528953 365.679724,547.790933 364.599746,551.409215 363.507043,554.760717 357.707432,575.320249 342.943568,569.105958 326.788263,562.277297 315.363026,557.568853 301.742043,551.785458 268.291870,537.864529 249.768045,529.831473 228.707068,521.243024 208.900873,512.927131 202.427732,510.256168 192.836595,506.241530 186.348629,503.515280 170.968096,497.059308 158.684436,491.914132 148.832970,487.794108 140.536484,484.318199 122.765043,476.869717 99.622370,467.170981 85.352704,461.235734 60.191093,450.792181 58.319587,446.004551 81.772495,435.844382 97.076087,429.716391 118.709652,421.355186 127.425275,417.755633 135.406955,414.417280 153.085530,407.958287 153.995844,410.430580 161.346094,407.384548 176.263522,409.800353 183.661290,411.927665 188.395083,413.290948 190.078080,413.587246 189.304871,416.653472 201.141486,420.006016 201.946052,417.128263 204.350997,417.842447 208.947370,419.130920 208.329022,421.837605 214.244794,423.552899 214.861658,420.779482 219.007083,421.933359 234.260011,426.311456 245.228606,429.394134 248.118397,430.242192 262.641303,434.147030 276.928154,438.424383 281.967651,439.803198 291.977559,442.506744"/>
    <poly id="194468391" type="landuse.religious" color="194,194,130" fill="1" layer="-3.00" shape="809.039207,354.945493 811.483121,345.176887 800.035565,342.214845 788.291237,339.337305 787.903947,340.848124 779.570215,338.740665 779.445642,339.244171 776.026278,338.385292 775.505661,340.310791 774.705927,343.422010 774.298043,344.922160 786.476400,348.090486 786.250934,348.941186 809.039207,354.945493"/>
    <poly id="194944540" type="building.apartments" color="255,230,230" fill="1" layer="-1.00" shape="341.677019,432.998308 342.651972,432.587128 346.538215,430.942711 347.775251,430.414419 349.021973,433.368871 352.740114,431.794969 367.369973,435.630966 366.098148,440.388539 371.907873,441.917212 372.098015,442.836574 370.344613,449.741379 361.195936,447.307818 353.405851,445.233489 345.424827,443.118914 341.677019,432.998308"/>
    <poly id="198215715" type="landuse.residential" color="235,235,227" fill="1" layer="-3.00" shape="1074.072305,425.822980 1075.470040,426.726781 1076.348039,427.452909 1074.110917,440.454927 1073.423910,444.987932 1071.927409,454.345969 1067.506515,476.009067 1062.369259,501.182087 1056.189233,524.620025 1044.943474,561.423043 1037.370829,582.032031 1023.092240,616.098069 1018.171973,627.445856 1015.797896,628.421994 991.802524,621.775843 968.065589,615.157467 938.057499,606.997830 906.835836,598.286625 897.833272,595.681929 897.558253,594.909089 897.135609,593.905840 904.499659,575.549015 910.222820,561.546073 915.558113,548.108113 920.955343,535.013744 928.936288,515.697451 935.671527,498.968116 939.473385,490.137603 956.810322,481.708388 969.111880,475.749780 982.222814,469.561861 1074.072305,425.822980"/>
    <poly id="199124891" type="building.apartments" color="255,230,230" fill="1" layer="-1.00" shape="404.776109,251.280956 391.990527,257.752500 397.082120,272.138509 434.955738,256.328998 429.422347,242.520294 424.360556,241.976392 422.096926,236.329403 402.002093,244.354526 404.776109,251.280956"/>
    <poly id="199124892" type="building.commercial" color="255,230,230" fill="1" layer="-1.00" shape="372.233219,282.762172 366.998953,268.067788 347.542035,211.460619 351.569833,210.068998 348.951450,202.515981 344.923398,203.896482 330.278020,161.603681 333.659300,160.437870 332.208385,156.241670 328.578077,157.502050 327.867175,155.448137 311.055011,161.241753 355.172186,288.639086 363.719410,285.689122 372.233219,282.762172"/>
    <poly id="217685486" type="building.yes" color="255,230,230" fill="1" layer="-1.00" shape="639.589413,512.422988 641.868857,502.602294 636.438813,501.354193 634.159379,511.174889 639.398240,512.371596 639.589413,512.422988"/>
    <poly id="217685493" type="building.residential" color="255,230,230" fill="1" layer="-1.00" shape="619.270009,556.739485 629.925997,570.523616 632.530133,568.295883 628.825108,563.125930 629.870967,562.546318 636.028737,555.922130 630.576847,548.799127 630.087678,548.164589 619.270009,556.739485"/>
    <poly id="224960467" type="building.residential" color="255,230,230" fill="1" layer="-1.00" shape="942.950372,178.865738 920.176340,179.047425 920.073870,165.841218 931.766317,165.749162 942.847962,165.659532 942.950372,178.865738"/>