<?xml version="1.0" encoding="UTF-8"?>

<!-- generated on 10/30/20 17:35:42 by Eclipse SUMO duarouter Version 1.7.0
<configuration xmlns:xsi="http://www.w3.org/2001/XMLSchema-instance" xsi:noNamespaceSchemaLocation="http://sumo.dlr.de/xsd/duarouterConfiguration.xsd">

    <input>
        <net-file value="C:\Users\LICS\sumo-1.7.0\tools\2020-10-30-17-34-16\osm.net.xml"/>
        <route-files value="C:\Users\LICS\sumo-1.7.0\tools\2020-10-30-17-34-16\osm.bus.trips.xml"/>
    </input>

    <output>
        <output-file value="C:\Users\LICS\sumo-1.7.0\tools\2020-10-30-17-34-16\osm.bus.trips.xml.tmp"/>
        <write-trips value="true"/>
    </output>

    <time>
        <begin value="0"/>
        <end value="3600"/>
    </time>

    <report>
        <no-warnings value="true"/>
        <ignore-errors value="true"/>
        <no-step-log value="true"/>
    </report>

</configuration>
-->

<routes xmlns:xsi="http://www.w3.org/2001/XMLSchema-instance" xsi:noNamespaceSchemaLocation="http://sumo.dlr.de/xsd/routes_file.xsd">
    <vType id="bus_bus" vClass="bus"/>
    <trip id="bus0" type="bus_bus" depart="0.00" departLane="best" departSpeed="max" from="379781917" to="-273647638#0"/>
    <trip id="bus1" type="bus_bus" depart="2.85" departLane="best" departSpeed="max" from="-409237522#3" to="-379910121"/>
    <trip id="bus2" type="bus_bus" depart="5.69" departLane="best" departSpeed="max" from="379944878" to="379795844#8"/>
    <trip id="bus3" type="bus_bus" depart="8.54" departLane="best" departSpeed="max" from="381793825" to="-379584850"/>
    <trip id="bus4" type="bus_bus" depart="11.39" departLane="best" departSpeed="max" from="-476101527" to="-371238003#0"/>
    <trip id="bus5" type="bus_bus" depart="14.23" departLane="best" departSpeed="max" from="-379962823" to="-815640321#0"/>
    <trip id="bus6" type="bus_bus" depart="17.08" departLane="best" departSpeed="max" from="-273639766" to="-379883554"/>
    <trip id="bus7" type="bus_bus" depart="19.93" departLane="best" departSpeed="max" from="379781971" to="329961798#3"/>
    <trip id="bus8" type="bus_bus" depart="22.77" departLane="best" departSpeed="max" from="-379962836" to="377540890#4"/>
    <trip id="bus9" type="bus_bus" depart="25.62" departLane="best" departSpeed="max" from="381081125" to="-183272323#0"/>
    <trip id="bus10" type="bus_bus" depart="28.47" departLane="best" departSpeed="max" from="381081059" to="379878625#2"/>
    <trip id="bus11" type="bus_bus" depart="31.31" departLane="best" departSpeed="max" from="-420331816#1" to="-379781947"/>
    <trip id="bus12" type="bus_bus" depart="34.16" departLane="best" departSpeed="max" from="482169120#0" to="-381081278#0"/>
    <trip id="bus13" type="bus_bus" depart="37.01" departLane="best" departSpeed="max" from="-378331061#2" to="-379598584"/>
    <trip id="bus14" type="bus_bus" depart="39.85" departLane="best" departSpeed="max" from="381452129" to="378308773"/>
    <trip id="bus16" type="bus_bus" depart="45.55" departLane="best" departSpeed="max" from="377540966#0" to="772279128#9"/>
    <trip id="bus17" type="bus_bus" depart="48.39" departLane="best" departSpeed="max" from="-469807030#1" to="337111064"/>
    <trip id="bus18" type="bus_bus" depart="51.24" departLane="best" departSpeed="max" from="381204526" to="379557979"/>
    <trip id="bus19" type="bus_bus" depart="54.09" departLane="best" departSpeed="max" from="381458590" to="376672213"/>
    <trip id="bus20" type="bus_bus" depart="56.93" departLane="best" departSpeed="max" from="379892306" to="-377540899#0"/>
    <trip id="bus21" type="bus_bus" depart="59.78" departLane="best" departSpeed="max" from="-381080929#3" to="-379962810"/>
    <trip id="bus22" type="bus_bus" depart="62.63" departLane="best" departSpeed="max" from="-377540926#1" to="-379910168#0"/>
    <trip id="bus23" type="bus_bus" depart="65.47" departLane="best" departSpeed="max" from="-379555982" to="-379955952"/>
    <trip id="bus24" type="bus_bus" depart="68.32" departLane="best" departSpeed="max" from="379739063#0" to="-381453326#2"/>
    <trip id="bus25" type="bus_bus" depart="71.17" departLane="best" departSpeed="max" from="-469326842" to="-379891274#0"/>
    <trip id="bus26" type="bus_bus" depart="74.01" departLane="best" departSpeed="max" from="-381802844#8" to="476101523"/>
    <trip id="bus27" type="bus_bus" depart="76.86" departLane="best" departSpeed="max" from="379781960" to="379537208#1"/>
    <trip id="bus28" type="bus_bus" depart="79.71" departLane="best" departSpeed="max" from="-379795888#1" to="379962785"/>
    <trip id="bus29" type="bus_bus" depart="82.55" departLane="best" departSpeed="max" from="-379795848" to="-381467430"/>
    <trip id="bus30" type="bus_bus" depart="85.40" departLane="best" departSpeed="max" from="789114746" to="379724189"/>
    <trip id="bus31" type="bus_bus" depart="88.25" departLane="best" departSpeed="max" from="379558039#0" to="379795872"/>
    <trip id="bus32" type="bus_bus" depart="91.09" departLane="best" departSpeed="max" from="381447827" to="381570327"/>
    <trip id="bus33" type="bus_bus" depart="93.94" departLane="best" departSpeed="max" from="-381080939" to="-371238040"/>
    <trip id="bus34" type="bus_bus" depart="96.79" departLane="best" departSpeed="max" from="-416819839" to="-379951699#0"/>
    <trip id="bus35" type="bus_bus" depart="99.63" departLane="best" departSpeed="max" from="-379962774#2" to="476101536"/>
    <trip id="bus36" type="bus_bus" depart="102.48" departLane="best" departSpeed="max" from="381570334#0" to="-381080999#0"/>
    <trip id="bus37" type="bus_bus" depart="105.33" departLane="best" departSpeed="max" from="379795838#0" to="-381741938"/>
    <trip id="bus38" type="bus_bus" depart="108.17" departLane="best" departSpeed="max" from="416209834" to="-469326846"/>
    <trip id="bus39" type="bus_bus" depart="111.02" departLane="best" departSpeed="max" from="-381746316" to="-379944876"/>
    <trip id="bus40" type="bus_bus" depart="113.87" departLane="best" from="379578138#8" to="-379951688"/>
    <trip id="bus41" type="bus_bus" depart="116.71" departLane="best" departSpeed="max" from="379598581" to="469807033"/>
    <trip id="bus42" type="bus_bus" depart="119.56" departLane="best" departSpeed="max" from="-471345636" to="-379910110"/>
    <trip id="bus43" type="bus_bus" depart="122.41" departLane="best" departSpeed="max" from="793384557#0" to="159605337"/>
    <trip id="bus44" type="bus_bus" depart="125.25" departLane="best" departSpeed="max" from="-378308773" to="-377540966#0"/>
    <trip id="bus45" type="bus_bus" depart="128.10" departLane="best" departSpeed="max" from="379966010#0" to="-416175120"/>
    <trip id="bus46" type="bus_bus" depart="130.95" departLane="best" departSpeed="max" from="-376672213" to="-381467451"/>
    <trip id="bus47" type="bus_bus" depart="133.79" departLane="best" departSpeed="max" from="793089366" to="248406291"/>
    <trip id="bus48" type="bus_bus" depart="136.64" departLane="best" departSpeed="max" from="687875276" to="420335668"/>
    <trip id="bus50" type="bus_bus" depart="142.33" departLane="best" departSpeed="max" from="379878590" to="273639457#2"/>
    <trip id="bus51" type="bus_bus" depart="145.18" departLane="best" departSpeed="max" from="-381802844#8" to="379724194"/>
    <trip id="bus52" type="bus_bus" depart="148.03" departLane="best" departSpeed="max" from="-379589788" to="-416506114"/>
    <trip id="bus53" type="bus_bus" depart="150.87" departLane="best" departSpeed="max" from="-779239875" to="519089676#4"/>
    <trip id="bus54" type="bus_bus" depart="153.72" departLane="best" departSpeed="max" from="381570334#0" to="-379951688"/>
    <trip id="bus55" type="bus_bus" depart="156.57" departLane="best" departSpeed="max" from="226966686#0" to="-379798242"/>
    <trip id="bus56" type="bus_bus" depart="159.41" departLane="best" departSpeed="max" from="416195452" to="468996867"/>
    <trip id="bus57" type="bus_bus" depart="162.26" departLane="best" departSpeed="max" from="-416453523#2" to="379724185"/>
    <trip id="bus58" type="bus_bus" depart="165.11" departLane="best" departSpeed="max" from="379724375#0" to="-379781933"/>
    <trip id="bus59" type="bus_bus" depart="167.95" departLane="best" departSpeed="max" from="379953372#0" to="310909619#0"/>
    <trip id="bus60" type="bus_bus" depart="170.80" departLane="best" departSpeed="max" from="379962810" to="26268475#2"/>
    <trip id="bus61" type="bus_bus" depart="173.65" departLane="best" departSpeed="max" from="-158653793#4" to="-381081139#0"/>
    <trip id="bus62" type="bus_bus" depart="176.49" departLane="best" departSpeed="max" from="-248406291" to="476099016"/>
    <trip id="bus63" type="bus_bus" depart="179.34" departLane="best" departSpeed="max" from="381737980#0" to="416746041"/>
    <trip id="bus64" type="bus_bus" depart="182.19" departLane="best" departSpeed="max" from="-416506377" to="-379553742#0"/>
    <trip id="bus65" type="bus_bus" depart="185.03" departLane="best" departSpeed="max" from="381737972#0" to="495622939#1"/>
    <trip id="bus66" type="bus_bus" depart="187.88" departLane="best" departSpeed="max" from="-377543962" to="-770899736#0"/>
    <trip id="bus67" type="bus_bus" depart="190.73" departLane="best" departSpeed="max" from="-376672245#1" to="381458587#4"/>
    <trip id="bus68" type="bus_bus" depart="193.57" departLane="best" departSpeed="max" from="379955951" to="-379730390#0"/>
    <trip id="bus69" type="bus_bus" depart="196.42" departLane="best" departSpeed="max" from="-793763790" to="332080691#8"/>
    <trip id="bus70" type="bus_bus" depart="199.27" departLane="best" departSpeed="max" from="-381746316" to="469047181#1"/>
    <trip id="bus71" type="bus_bus" depart="202.11" departLane="best" departSpeed="max" from="-476101528" to="-379891321#0"/>
    <trip id="bus72" type="bus_bus" depart="204.96" departLane="best" departSpeed="max" from="378331054" to="379962793"/>
    <trip id="bus73" type="bus_bus" depart="207.81" departLane="best" departSpeed="max" from="-379944906#2" to="-381080955#0"/>
    <trip id="bus74" type="bus_bus" depart="210.65" departLane="best" departSpeed="max" from="792843174" to="379730358"/>
    <trip id="bus76" type="bus_bus" depart="216.35" departLane="best" departSpeed="max" from="-379724129" to="-379910122"/>
    <trip id="bus77" type="bus_bus" depart="219.19" departLane="best" departSpeed="max" from="-420187963#1" to="377540890#4"/>
    <trip id="bus78" type="bus_bus" depart="222.04" departLane="best" departSpeed="max" from="-381081066#5" to="-379910111"/>
    <trip id="bus79" type="bus_bus" depart="224.89" departLane="best" departSpeed="max" from="-376672269#3" to="379598666"/>
    <trip id="bus80" type="bus_bus" depart="227.73" departLane="best" departSpeed="max" from="-381080939" to="469807040"/>
    <trip id="bus81" type="bus_bus" depart="230.58" departLane="best" departSpeed="max" from="381456466#0" to="-379567138"/>
    <trip id="bus82" type="bus_bus" depart="233.43" departLane="best" departSpeed="max" from="-381218099" to="379781924"/>
    <trip id="bus83" type="bus_bus" depart="236.27" departLane="best" departSpeed="max" from="-379962793" to="-379738959#0"/>
    <trip id="bus84" type="bus_bus" depart="239.12" departLane="best" departSpeed="max" from="420062456#0" to="376672196"/>
    <trip id="bus85" type="bus_bus" depart="241.97" departLane="best" departSpeed="max" from="-793763782" to="381802844#8"/>
    <trip id="bus87" type="bus_bus" depart="247.66" departLane="best" departSpeed="max" from="-379553600#2" to="-416504751"/>
    <trip id="bus88" type="bus_bus" depart="250.51" departLane="best" departSpeed="max" from="-476101532#1" to="-471834306"/>
    <trip id="bus89" type="bus_bus" depart="253.35" departLane="best" departSpeed="max" from="379944861" to="379781995#1"/>
    <trip id="bus90" type="bus_bus" depart="256.20" departLane="best" departSpeed="max" from="788296731" to="-379598587"/>
    <trip id="bus91" type="bus_bus" depart="259.05" departLane="best" departSpeed="max" from="-471830486" to="-381204504#0"/>
    <trip id="bus92" type="bus_bus" depart="261.89" departLane="best" departSpeed="max" from="381458590" to="-379944882"/>
    <trip id="bus93" type="bus_bus" depart="264.74" departLane="best" departSpeed="max" from="-379910149#1" to="-420062458#0"/>
    <trip id="bus94" type="bus_bus" depart="267.59" departLane="best" departSpeed="max" from="-381467546" to="473686056"/>
    <trip id="bus95" type="bus_bus" depart="270.43" departLane="best" departSpeed="max" from="-701010024" to="420335668"/>
    <trip id="bus96" type="bus_bus" depart="273.28" departLane="best" departSpeed="max" from="97537672" to="417129103#1"/>
    <trip id="bus97" type="bus_bus" depart="276.13" departLane="best" departSpeed="max" from="612338634" to="475319131#1"/>
    <trip id="bus98" type="bus_bus" depart="278.97" departLane="best" departSpeed="max" from="381452133" to="-379795839#0"/>
    <trip id="bus99" type="bus_bus" depart="281.82" departLane="best" from="183272323#41" to="-379891337#0"/>
    <trip id="bus100" type="bus_bus" depart="284.67" departLane="best" departSpeed="max" from="-471350649" to="-379555974#0"/>
    <trip id="bus101" type="bus_bus" depart="287.51" departLane="best" departSpeed="max" from="-469807033" to="793089317"/>
    <trip id="bus102" type="bus_bus" depart="290.36" departLane="best" departSpeed="max" from="-779263571" to="-416175121"/>
    <trip id="bus103" type="bus_bus" depart="293.21" departLane="best" departSpeed="max" from="482169120#0" to="793763787"/>
    <trip id="bus104" type="bus_bus" depart="296.05" departLane="best" departSpeed="max" from="379558004#0" to="379944912#3"/>
    <trip id="bus105" type="bus_bus" depart="298.90" departLane="best" departSpeed="max" from="-379781949#1" to="-379962834#0"/>
    <trip id="bus106" type="bus_bus" depart="301.75" departLane="best" departSpeed="max" from="612338634" to="376672222"/>
    <trip id="bus107" type="bus_bus" depart="304.59" departLane="best" departSpeed="max" from="379553632" to="381081081"/>
    <trip id="bus108" type="bus_bus" depart="307.44" departLane="best" departSpeed="max" from="-376672192" to="376672269#3"/>
    <trip id="bus109" type="bus_bus" depart="310.29" departLane="best" from="232594130#6" to="420086333#0"/>
    <trip id="bus110" type="bus_bus" depart="313.13" departLane="best" departSpeed="max" from="-379781995#1" to="616494217"/>
    <trip id="bus111" type="bus_bus" depart="315.98" departLane="best" departSpeed="max" from="-377540926#1" to="-379798257"/>
    <trip id="bus112" type="bus_bus" depart="318.83" departLane="best" departSpeed="max" from="379603771#0" to="379795843"/>
    <trip id="bus114" type="bus_bus" depart="324.52" departLane="best" departSpeed="max" from="381746723" to="-379944874"/>
    <trip id="bus115" type="bus_bus" depart="327.37" departLane="best" from="379603737#3" to="379557986#2"/>
    <trip id="bus116" type="bus_bus" depart="330.21" departLane="best" departSpeed="max" from="-476101522" to="376672257#1"/>
    <trip id="bus118" type="bus_bus" depart="335.91" departLane="best" departSpeed="max" from="-379953372#1" to="379944891"/>
    <trip id="bus119" type="bus_bus" depart="338.75" departLane="best" departSpeed="max" from="-381218104#1" to="-381741938"/>
    <trip id="bus120" type="bus_bus" depart="341.60" departLane="best" departSpeed="max" from="379798249" to="-379962843#0"/>
    <trip id="bus121" type="bus_bus" depart="344.45" departLane="best" departSpeed="max" from="-417121179" to="381081285#2"/>
    <trip id="bus122" type="bus_bus" depart="347.29" departLane="best" departSpeed="max" from="-377376244" to="-468905702"/>
    <trip id="bus123" type="bus_bus" depart="350.14" departLane="best" departSpeed="max" from="793763780" to="807006789"/>
    <trip id="bus124" type="bus_bus" depart="352.99" departLane="best" departSpeed="max" from="-377376248" to="-379891337#0"/>
    <trip id="bus125" type="bus_bus" depart="355.83" departLane="best" departSpeed="max" from="-381746316" to="476099020"/>
    <trip id="bus126" type="bus_bus" depart="358.68" departLane="best" departSpeed="max" from="381741934" to="469048589"/>
    <trip id="bus127" type="bus_bus" depart="361.53" departLane="best" departSpeed="max" from="-469326842" to="-379781960"/>
    <trip id="bus128" type="bus_bus" depart="364.37" departLane="best" departSpeed="max" from="381218090" to="379891274#1"/>
    <trip id="bus129" type="bus_bus" depart="367.22" departLane="best" departSpeed="max" from="379730339#0" to="793089341"/>
    <trip id="bus130" type="bus_bus" depart="370.07" departLane="best" departSpeed="max" from="379795833#0" to="-183272444#0"/>
    <trip id="bus131" type="bus_bus" depart="372.91" departLane="best" departSpeed="max" from="381081208" to="-379962841#0"/>
    <trip id="bus132" type="bus_bus" depart="375.76" departLane="best" departSpeed="max" from="379795877#0" to="476101528"/>
    <trip id="bus133" type="bus_bus" depart="378.61" departLane="best" departSpeed="max" from="-379730358" to="-379724278"/>
    <trip id="bus134" type="bus_bus" depart="381.45" departLane="best" departSpeed="max" from="-379567160#6" to="337111065"/>
    <trip id="bus135" type="bus_bus" depart="384.30" departLane="best" departSpeed="max" from="-396816938#9" to="378308780#2"/>
    <trip id="bus136" type="bus_bus" depart="387.15" departLane="best" departSpeed="max" from="379910136" to="-379891239"/>
    <trip id="bus137" type="bus_bus" depart="389.99" departLane="best" departSpeed="max" from="379739043#0" to="-379951691"/>
    <trip id="bus138" type="bus_bus" depart="392.84" departLane="best" departSpeed="max" from="183272603" to="469807040"/>
    <trip id="bus139" type="bus_bus" depart="395.69" departLane="best" departSpeed="max" from="381452115" to="-379589793"/>
    <trip id="bus140" type="bus_bus" depart="398.53" departLane="best" departSpeed="max" from="-476101532#1" to="-379955951"/>
    <trip id="bus141" type="bus_bus" depart="401.38" departLane="best" from="-172670186#3" to="381467566#1"/>
    <trip id="bus142" type="bus_bus" depart="404.23" departLane="best" departSpeed="max" from="379766307" to="-379951684"/>
    <trip id="bus143" type="bus_bus" depart="407.07" departLane="best" departSpeed="max" from="379944896" to="337111064"/>
    <trip id="bus145" type="bus_bus" depart="412.77" departLane="best" departSpeed="max" from="-377540890#4" to="469048595#1"/>
    <trip id="bus146" type="bus_bus" depart="415.61" departLane="best" departSpeed="max" from="392752139" to="329961798#3"/>
    <trip id="bus147" type="bus_bus" depart="418.46" departLane="best" departSpeed="max" from="381218096" to="376672245#1"/>
    <trip id="bus148" type="bus_bus" depart="421.31" departLane="best" departSpeed="max" from="-379739043#1" to="-379730381"/>
    <trip id="bus149" type="bus_bus" depart="424.15" departLane="best" departSpeed="max" from="-416571834#1" to="469807034"/>
    <trip id="bus150" type="bus_bus" depart="427.00" departLane="best" departSpeed="max" from="380722321#0" to="420335668"/>
    <trip id="bus151" type="bus_bus" depart="429.85" departLane="best" departSpeed="max" from="381807696" to="-379891298#0"/>
    <trip id="bus152" type="bus_bus" depart="432.69" departLane="best" from="-381467534#3" to="-379598632"/>
    <trip id="bus153" type="bus_bus" depart="435.54" departLane="best" departSpeed="max" from="379962812#0" to="469048596#1"/>
    <trip id="bus154" type="bus_bus" depart="438.39" departLane="best" departSpeed="max" from="-473686056" to="379567160#6"/>
    <trip id="bus155" type="bus_bus" depart="441.23" departLane="best" departSpeed="max" from="-379781949#1" to="476099017"/>
    <trip id="bus156" type="bus_bus" depart="444.08" departLane="best" departSpeed="max" from="381458601#0" to="779239874"/>
    <trip id="bus157" type="bus_bus" depart="446.93" departLane="best" departSpeed="max" from="381081132" to="469048592"/>
    <trip id="bus158" type="bus_bus" depart="449.77" departLane="best" departSpeed="max" from="-272228670#1" to="379962832"/>
    <trip id="bus159" type="bus_bus" depart="452.62" departLane="best" departSpeed="max" from="-420076117" to="476099018"/>
    <trip id="bus160" type="bus_bus" depart="455.47" departLane="best" departSpeed="max" from="381080999#0" to="468573536#1"/>
    <trip id="bus161" type="bus_bus" depart="458.31" departLane="best" departSpeed="max" from="381081132" to="-379951697"/>
    <trip id="bus162" type="bus_bus" depart="461.16" departLane="best" departSpeed="max" from="379962839" to="-379724081"/>
    <trip id="bus163" type="bus_bus" depart="464.01" departLane="best" departSpeed="max" from="381467559#0" to="420331816#1"/>
    <trip id="bus164" type="bus_bus" depart="466.85" departLane="best" departSpeed="max" from="-379962848" to="416453516#2"/>
    <trip id="bus165" type="bus_bus" depart="469.70" departLane="best" departSpeed="max" from="-788411963" to="-379966013#0"/>
    <trip id="bus166" type="bus_bus" depart="472.55" departLane="best" departSpeed="max" from="380722321#0" to="-379910134"/>
    <trip id="bus167" type="bus_bus" depart="475.39" departLane="best" departSpeed="max" from="-272228567" to="-379878590"/>
    <trip id="bus169" type="bus_bus" depart="481.09" departLane="best" departSpeed="max" from="59059316#0" to="-379955953#0"/>
    <trip id="bus170" type="bus_bus" depart="483.93" departLane="best" departSpeed="max" from="379781926" to="-381746314"/>
    <trip id="bus171" type="bus_bus" depart="486.78" departLane="best" departSpeed="max" from="779710385" to="273639457#2"/>
    <trip id="bus172" type="bus_bus" depart="489.63" departLane="best" departSpeed="max" from="420076114" to="-379724259"/>
    <trip id="bus173" type="bus_bus" depart="492.47" departLane="best" departSpeed="max" from="674365946#0" to="-379798235#0"/>
    <trip id="bus174" type="bus_bus" depart="495.32" departLane="best" departSpeed="max" from="516721730#0" to="-379951693"/>
    <trip id="bus176" type="bus_bus" depart="501.01" departLane="best" departSpeed="max" from="379944858" to="-381080999#0"/>
    <trip id="bus177" type="bus_bus" depart="503.86" departLane="best" departSpeed="max" from="379724278" to="175357594"/>
    <trip id="bus178" type="bus_bus" depart="506.71" departLane="best" departSpeed="max" from="-469807039" to="376672213"/>
    <trip id="bus179" type="bus_bus" depart="509.55" departLane="best" departSpeed="max" from="-381467574" to="379923344"/>
    <trip id="bus180" type="bus_bus" depart="512.40" departLane="best" departSpeed="max" from="-159604676" to="475319130#1"/>
    <trip id="bus181" type="bus_bus" depart="515.25" departLane="best" departSpeed="max" from="378308778#0" to="379951699#3"/>
    <trip id="bus182" type="bus_bus" depart="518.09" departLane="best" departSpeed="max" from="379944899#0" to="379781973#1"/>
    <trip id="bus183" type="bus_bus" depart="520.94" departLane="best" departSpeed="max" from="-469048595#1" to="-379567136"/>
    <trip id="bus184" type="bus_bus" depart="523.79" departLane="best" departSpeed="max" from="379795877#0" to="-381081215#0"/>
    <trip id="bus185" type="bus_bus" depart="526.63" departLane="best" departSpeed="max" from="-416746046" to="420062472"/>
    <trip id="bus186" type="bus_bus" depart="529.48" departLane="best" departSpeed="max" from="379910145" to="-379962843#0"/>
    <trip id="bus187" type="bus_bus" depart="532.33" departLane="best" departSpeed="max" from="-416583157" to="-381802876#0"/>
    <trip id="bus188" type="bus_bus" depart="535.17" departLane="best" departSpeed="max" from="-379724261" to="-416161872"/>
    <trip id="bus189" type="bus_bus" depart="538.02" departLane="best" departSpeed="max" from="420086334#0" to="379795847"/>
    <trip id="bus190" type="bus_bus" depart="540.87" departLane="best" departSpeed="max" from="382458620" to="379555987"/>
    <trip id="bus191" type="bus_bus" depart="543.71" departLane="best" departSpeed="max" from="-416461497#4" to="330548295#4"/>
    <trip id="bus192" type="bus_bus" depart="546.56" departLane="best" departSpeed="max" from="-158653793#4" to="-379962791"/>
    <trip id="bus194" type="bus_bus" depart="552.25" departLane="best" departSpeed="max" from="379795833#0" to="-470868329#0"/>
    <trip id="bus195" type="bus_bus" depart="555.10" departLane="best" from="-674365945#1" to="-379891337#0"/>
    <trip id="bus196" type="bus_bus" depart="557.95" departLane="best" departSpeed="max" from="-793763782" to="469807036"/>
    <trip id="bus197" type="bus_bus" depart="560.79" departLane="best" departSpeed="max" from="380722321#0" to="-379795858"/>
    <trip id="bus198" type="bus_bus" depart="563.64" departLane="best" departSpeed="max" from="-377543956" to="184083181#4"/>
    <trip id="bus199" type="bus_bus" depart="566.49" departLane="best" departSpeed="max" from="379739036#0" to="-381081273#0"/>
    <trip id="bus201" type="bus_bus" depart="572.18" departLane="best" departSpeed="max" from="379798250" to="-379910122"/>
    <trip id="bus202" type="bus_bus" depart="575.03" departLane="best" departSpeed="max" from="-379944888" to="-273647638#0"/>
    <trip id="bus203" type="bus_bus" depart="577.87" departLane="best" departSpeed="max" from="-381467441" to="-516724037#0"/>
    <trip id="bus204" type="bus_bus" depart="580.72" departLane="best" departSpeed="max" from="381452172" to="-379578144"/>
    <trip id="bus205" type="bus_bus" depart="583.57" departLane="best" departSpeed="max" from="-476099017" to="379598657#1"/>
    <trip id="bus206" type="bus_bus" depart="586.41" departLane="best" departSpeed="max" from="-379944851#1" to="379798287"/>
    <trip id="bus207" type="bus_bus" depart="589.26" departLane="best" departSpeed="max" from="198564928#0" to="-379944871"/>
    <trip id="bus208" type="bus_bus" depart="592.11" departLane="best" departSpeed="max" from="379795839#0" to="-175357618"/>
    <trip id="bus209" type="bus_bus" depart="594.95" departLane="best" departSpeed="max" from="379951684" to="381467561"/>
    <trip id="bus210" type="bus_bus" depart="597.80" departLane="best" departSpeed="max" from="-379567160#6" to="-416204678"/>
    <trip id="bus211" type="bus_bus" depart="600.65" departLane="best" departSpeed="max" from="-379795905#1" to="59059283#1"/>
    <trip id="bus212" type="bus_bus" depart="603.50" departLane="best" departSpeed="max" from="371238000#0" to="-378331054"/>
    <trip id="bus213" type="bus_bus" depart="606.34" departLane="best" departSpeed="max" from="-381467512" to="420062472"/>
    <trip id="bus214" type="bus_bus" depart="609.19" departLane="best" departSpeed="max" from="-782303556" to="416172054"/>
    <trip id="bus215" type="bus_bus" depart="612.04" departLane="best" departSpeed="max" from="379798235#0" to="793089341"/>
    <trip id="bus216" type="bus_bus" depart="614.88" departLane="best" departSpeed="max" from="379603771#0" to="517583988#4"/>
    <trip id="bus217" type="bus_bus" depart="617.73" departLane="best" departSpeed="max" from="381793825" to="379553738#5"/>
    <trip id="bus218" type="bus_bus" depart="620.58" departLane="best" departSpeed="max" from="379910145" to="-793384557#0"/>
    <trip id="bus219" type="bus_bus" depart="623.42" departLane="best" departSpeed="max" from="381204541#0" to="330548295#4"/>
    <trip id="bus220" type="bus_bus" depart="626.27" departLane="best" departSpeed="max" from="381802880#0" to="380764191"/>
    <trip id="bus221" type="bus_bus" depart="629.12" departLane="best" departSpeed="max" from="-793763790" to="-379944920"/>
    <trip id="bus222" type="bus_bus" depart="631.96" departLane="best" departSpeed="max" from="-381467467" to="379724131"/>
    <trip id="bus223" type="bus_bus" depart="634.81" departLane="best" departSpeed="max" from="379738980" to="-379953373#0"/>
    <trip id="bus224" type="bus_bus" depart="637.66" departLane="best" departSpeed="max" from="-377540906" to="-379962790"/>
    <trip id="bus226" type="bus_bus" depart="643.35" departLane="best" departSpeed="max" from="378331066" to="-379738989"/>
    <trip id="bus227" type="bus_bus" depart="646.20" departLane="best" departSpeed="max" from="-381081081" to="379798246"/>
    <trip id="bus228" type="bus_bus" depart="649.04" departLane="best" departSpeed="max" from="379895836" to="-379555993"/>
    <trip id="bus230" type="bus_bus" depart="654.74" departLane="best" departSpeed="max" from="-476099018" to="-379891268#0"/>
    <trip id="bus231" type="bus_bus" depart="657.58" departLane="best" departSpeed="max" from="379598581" to="379798273#1"/>
    <trip id="bus232" type="bus_bus" depart="660.43" departLane="best" departSpeed="max" from="381456453#0" to="381467512"/>
    <trip id="bus233" type="bus_bus" depart="663.28" departLane="best" departSpeed="max" from="-469807034" to="-183272323#0"/>
    <trip id="bus234" type="bus_bus" depart="666.12" departLane="best" departSpeed="max" from="-468996867" to="381204531"/>
    <trip id="bus235" type="bus_bus" depart="668.97" departLane="best" departSpeed="max" from="381453798" to="519068806#1"/>
    <trip id="bus237" type="bus_bus" depart="674.66" departLane="best" from="379553704#1" to="378308773"/>
    <trip id="bus238" type="bus_bus" depart="677.51" departLane="best" departSpeed="max" from="-379962836" to="-379910110"/>
    <trip id="bus239" type="bus_bus" depart="680.36" departLane="best" departSpeed="max" from="-519089676#4" to="-371238000#0"/>
    <trip id="bus240" type="bus_bus" depart="683.20" departLane="best" departSpeed="max" from="-420108603" to="379795848"/>
    <trip id="bus241" type="bus_bus" depart="686.05" departLane="best" departSpeed="max" from="-471831745" to="-379795838#0"/>
    <trip id="bus242" type="bus_bus" depart="688.90" departLane="best" departSpeed="max" from="-793089357" to="-379730381"/>
    <trip id="bus244" type="bus_bus" depart="694.59" departLane="best" departSpeed="max" from="-470448808" to="37401394#1"/>
    <trip id="bus245" type="bus_bus" depart="697.44" departLane="best" departSpeed="max" from="-273639766" to="379724261"/>
    <trip id="bus246" type="bus_bus" depart="700.28" departLane="best" departSpeed="max" from="-379730366" to="-469807031"/>