<?xml version="1.0" encoding="UTF-8"?>

<!-- generated on 10/30/20 17:34:49 by Eclipse SUMO polyconvert Version 1.7.0
<configuration xmlns:xsi="http://www.w3.org/2001/XMLSchema-instance" xsi:noNamespaceSchemaLocation="http://sumo.dlr.de/xsd/polyconvertConfiguration.xsd">

    <input>
        <net-file value="osm.net.xml"/>
        <osm-files value="osm_bbox.osm.xml"/>
        <osm.keep-full-type value="true"/>
        <type-file value="C:\Users\LICS\sumo-1.7.0\data\typemap\osmPolyconvert.typ.xml"/>
    </input>

    <output>
        <output-file value="osm.poly.xml"/>
    </output>

    <processing>
        <poi-layer-offset value="5"/>
    </processing>

    <report>
        <verbose value="true"/>
    </report>

</configuration>
-->

<additional xmlns:xsi="http://www.w3.org/2001/XMLSchema-instance" xsi:noNamespaceSchemaLocation="http://sumo.dlr.de/xsd/additional_file.xsd">
    <location netOffset="-314481.54,-4155787.22" convBoundary="0.00,0.00,17256.25,26924.83" origBoundary="126.899294,37.533728,127.095602,37.775603" projParameter="+proj=utm +zone=52 +ellps=WGS84 +datum=WGS84 +units=m +no_defs"/>

    <poly id="101145093" type="building.yes" color="255,230,230" fill="1" layer="-1.00" shape="13039.914287,6613.448439 13041.001197,6627.901406 13065.722298,6626.054911 13066.687394,6638.900782 13056.148052,6639.686217 13056.451672,6643.665125 13052.562302,6643.956971 13052.990698,6649.687226 13057.109399,6649.379508 13057.390742,6653.136862 13067.885920,6652.352346 13068.996443,6667.093447 13021.785781,6670.617953 13022.885478,6685.259369 13127.757660,6677.427112 13127.122443,6668.970335 13131.567360,6668.633666 13131.822472,6671.980833 13147.997497,6670.778564 13143.150130,6606.316533 13136.553110,6606.808960 13134.748121,6582.879655 13168.041890,6580.388950 13167.076029,6567.498690 13112.050890,6571.618077 13113.040266,6584.785369 13130.714621,6583.463083 13132.531451,6607.536453 13128.889056,6607.812025 13129.156691,6611.336545 13124.394116,6611.690921 13124.052500,6607.157757 13039.914287,6613.448439"/>
    <poly id="101145098" type="building.yes" color="255,230,230" fill="1" layer="-1.00" shape="12969.357397,6630.991088 12969.747786,6638.287362 12971.336152,6638.209892 12971.465511,6640.604997 12967.212518,6640.826746 12968.903210,6672.395852 12973.606022,6672.142537 12973.711023,6674.216222 12971.796439,6674.322685 12972.118426,6680.454788 12978.550630,6680.109969 12978.663304,6682.127990 13000.986299,6680.930663 13000.859027,6678.635423 13006.664811,6678.325866 13006.321496,6672.016593 13004.627415,6672.107358 13004.540951,6670.499525 13008.952626,6670.263391 13007.181859,6637.386044 13001.940666,6637.661646 13001.865341,6636.164590 13004.203513,6636.038218 13003.814078,6628.786328 12999.605226,6629.007141 12999.651576,6629.960854 12997.207450,6630.089433 12997.119137,6628.392832 12976.384137,6629.501600 12976.543164,6632.473334 12973.746094,6632.620368 12973.645713,6630.768605 12969.357397,6630.991088"/>
    <poly id="101145099" type="building.residential" color="255,230,230" fill="1" layer="-1.00" shape="13190.436519,6686.713952 13189.366328,6743.150971 13202.638735,6743.396765 13203.709015,6686.959750 13190.436519,6686.713952"/>
    <poly id="101162871" type="amenity.university" color="237,199,199" fill="1" layer="-1.00" shape="15469.927630,1737.394389 15463.431760,1721.009700 15461.675445,1703.872990 15437.407777,1653.074079 15401.683902,1652.240839 15400.901474,1637.348710 15380.327324,1639.146805 15382.041923,1659.414742 15352.852885,1660.468110 15351.050778,1620.842444 15301.217653,1623.740039 15299.963781,1633.711928 15317.012948,1661.302710 15326.292710,1738.450679 15326.544811,1740.832151 15328.340800,1757.734921 15330.317230,1773.523928 15337.980914,1822.720305 15274.850873,1888.698227 15278.992142,1895.839825 15285.003662,1901.522188 15297.035513,1912.886744 15320.575503,1934.216858 15309.090241,1947.351306 15328.884678,1964.462287 15303.575642,1990.468317 15305.055037,2020.376448 15305.486661,2031.512655 15306.289689,2039.211144 15310.707245,2039.142764 15311.039308,2054.044135 15303.280549,2065.725711 15289.029775,2079.316535 15278.812863,2090.504617 15268.338733,2102.508338 15399.215036,2192.038165 15408.845484,2188.888020 15416.006579,2181.248325 15418.087856,2176.288086 15423.434350,2168.507974 15466.757019,2120.620183 15455.625677,2103.575628 15454.023298,2075.834642 15516.202178,2019.523996 15547.267625,1990.181590 15562.814616,1975.987470 15569.648570,1969.620098 15583.174064,1965.469079 15564.832325,1916.113738 15487.143249,1755.457726 15477.406922,1755.190920 15469.927630,1737.394389"/>
    <poly id="101170960" type="amenity.university" color="237,199,199" fill="1" layer="-1.00" shape="15219.605763,2242.455024 15250.871191,2176.852529 15347.610578,2235.966697 15322.435046,2296.026807 15219.605763,2242.455024"/>
    <poly id="101293858" type="building.yes" color="255,230,230" fill="1" layer="-1.00" shape="15491.785959,2036.064500 15475.608870,2019.056666 15509.575934,1986.835111 15525.562745,2004.046718 15491.785959,2036.064500"/>
    <poly id="101293860" type="building.yes" color="255,230,230" fill="1" layer="-1.00" shape="15388.026160,2167.446431 15451.879094,2106.627361 15464.037932,2120.764694 15413.774403,2168.495020 15416.056501,2173.765464 15414.397088,2179.904828 15410.131463,2183.932976 15403.651543,2186.430215 15396.908598,2185.580454 15392.083335,2182.138243 15385.803085,2174.973836 15390.653273,2170.145547 15388.026160,2167.446431"/>
    <poly id="101293861" type="building.yes" color="255,230,230" fill="1" layer="-1.00" shape="15459.948185,2027.258944 15428.424355,1995.391031 15418.156808,2005.847320 15413.303034,2001.018095 15401.871965,2012.486206 15407.114446,2017.307458 15396.834027,2027.564228 15427.364352,2059.252569 15459.948185,2027.258944"/>
    <poly id="101293869" type="building.yes" color="255,230,230" fill="1" layer="-1.00" shape="15277.568436,2157.811235 15324.160172,2198.705266 15320.904031,2203.689623 15268.842058,2173.153716 15277.568436,2157.811235"/>
    <poly id="101293870" type="building.yes" color="255,230,230" fill="1" layer="-1.00" shape="15317.675229,2075.099220 15372.033155,2130.531555 15359.417691,2142.412540 15304.479276,2087.980148 15317.675229,2075.099220"/>
    <poly id="101293871" type="building.yes" color="255,230,230" fill="1" layer="-1.00" shape="15421.867930,2056.701041 15395.686627,2029.363847 15379.015133,2046.456418 15404.800429,2073.013530 15421.867930,2056.701041"/>
    <poly id="101293874" type="building.yes" color="255,230,230" fill="1" layer="-1.00" shape="15439.082920,2076.051945 15378.698987,2132.359736 15361.268900,2114.589656 15404.800429,2073.013530 15421.867930,2056.701041 15439.082920,2076.051945"/>
    <poly id="101293879" type="building.yes" color="255,230,230" fill="1" layer="-1.00" shape="15368.092397,2218.096583 15358.177520,2226.769634 15323.589690,2189.847539 15333.885089,2180.767022 15368.092397,2218.096583"/>
    <poly id="101293883" type="building.yes" color="255,230,230" fill="1" layer="-1.00" shape="15444.160900,2087.081850 15452.265242,2096.573365 15450.355052,2099.964897 15452.779855,2102.279655 15385.820686,2165.915343 15375.506107,2155.092714 15377.055110,2153.484671 15375.830859,2151.533849 15444.160900,2087.081850"/>
    <poly id="101293886" type="building.yes" color="255,230,230" fill="1" layer="-1.00" shape="15285.262339,2239.931532 15306.126345,2251.048341 15327.526702,2262.465020 15320.646349,2276.892647 15277.865898,2252.893393 15285.262339,2239.931532"/>
    <poly id="101293887" type="building.yes" color="255,230,230" fill="1" layer="-1.00" shape="15458.674193,2032.802064 15476.092325,2052.148880 15456.683818,2070.673838 15438.677877,2051.538917 15458.674193,2032.802064"/>
    <poly id="135131187" type="building.yes" color="255,230,230" fill="1" layer="-1.00" shape="9286.448496,5244.556011 9297.966391,5244.832992 9298.881791,5207.669042 9301.966658,5207.736701 9302.103211,5202.105509 9298.134292,5202.012232 9298.647683,5180.853604 9284.318821,5180.514242 9283.812988,5201.195362 9287.499078,5201.283543 9286.448496,5244.556011"/>
    <poly id="135131190" type="building.yes" color="255,230,230" fill="1" layer="-1.00" shape="9207.599022,5266.303035 9211.513089,5243.040569 9228.368323,5245.857156 9228.768459,5243.484101 9270.653634,5250.475590 9269.688171,5256.179907 9280.842144,5258.040965 9277.554661,5277.537877 9256.204279,5273.973053 9256.572871,5271.778288 9231.879732,5267.651813 9231.440867,5270.281019 9207.599022,5266.303035"/>
    <poly id="135131193" type="building.yes" color="255,230,230" fill="1" layer="-1.00" shape="9228.106375,5154.988550 9267.242009,5158.963476 9267.476258,5156.682758 9288.513916,5158.822223 9289.193725,5152.147077 9297.073930,5152.945418 9298.749401,5136.580003 9292.037956,5135.901138 9294.547806,5111.403040 9277.707084,5109.696112 9275.110882,5135.117449 9283.442672,5135.961686 9282.330261,5146.808962 9229.913454,5141.495518 9229.503123,5145.467358 9228.059875,5145.320421 9227.423194,5151.528408 9228.450435,5151.639784 9228.106375,5154.988550"/>
    <poly id="135131195" type="building.yes" color="255,230,230" fill="1" layer="-1.00" shape="9231.783901,5172.128285 9247.850942,5174.850664 9239.946229,5221.110746 9225.014364,5218.586277 9225.619811,5215.065436 9224.475888,5214.867732 9231.783901,5172.128285"/>
    <poly id="158653070" type="landuse.forest" color="140,196,107" fill="1" layer="-3.00" shape="11443.265646,2182.942595 11437.496365,2178.823025 11437.387458,2173.630066 11431.559533,2167.136128 11434.527161,2157.349461 11438.713903,2146.693556 11442.157301,2130.092036 11449.567915,2121.444407 11454.532556,2109.528895 11454.295223,2098.210909 11452.438610,2084.273754 11463.260794,2080.261403 11477.465414,2079.497328 11492.574590,2076.349814 11512.827638,2070.252659 11504.707192,2082.989149 11497.375577,2095.409386 11490.559880,2109.250836 11483.168988,2118.841592 11478.184538,2129.813920 11471.259787,2138.451334 11465.222153,2144.716754 11458.834980,2156.650989 11453.411926,2169.042354 11443.265646,2182.942595"/>
    <poly id="158653148" type="landuse.forest" color="140,196,107" fill="1" layer="-3.00" shape="11375.573156,2232.995746 11374.002335,2225.946295 11380.935511,2217.297511 11391.033240,2201.511042 11373.736764,2190.539831 11369.877524,2187.312715 11371.151537,2180.214680 11374.010142,2165.235029 11377.443625,2148.167442 11374.139445,2141.909220 11372.401424,2133.631071 11376.986949,2119.658682 11382.876029,2106.313907 11389.790713,2097.199287 11402.851967,2087.012162 11417.305788,2075.374930 11421.207765,2064.625084 11422.701284,2045.233712 11422.134025,2034.200169 11423.689143,2024.909366 11431.696748,2022.388029 11435.810933,2030.605254 11442.869227,2073.428987 11445.134626,2090.843265 11444.914931,2103.125516 11439.044359,2116.936093 11433.681817,2132.634282 11431.482490,2140.706391 11428.417969,2153.037208 11424.845915,2163.502612 11419.394300,2174.951020 11414.419514,2186.378331 11411.763194,2195.414715 11409.623260,2206.316328 11406.528069,2216.760640 11401.435797,2223.006282 11392.999992,2227.434906 11375.573156,2232.995746"/>
    <poly id="158653405" type="leisure.park" color="207,245,201" fill="1" layer="-2.00" shape="11370.903542,1874.755089 11368.902048,1892.258864 11370.740374,1912.057690 11373.711832,1940.791209 11381.369181,1967.073029 11384.270292,1992.033705 11385.154232,2011.841453 11384.048694,2026.973033 11382.067252,2045.431071 11375.241451,2058.784393 11370.774668,2072.099333 11368.644753,2083.478087 11363.292092,2099.642359 11363.051555,2110.504135 11368.451875,2119.360403 11380.611611,2095.693399 11389.445462,2087.482099 11410.066785,2076.192820 11414.632537,2067.593731 11413.720046,2046.843001 11415.094864,2021.792635 11425.201394,1999.667407 11429.698096,1987.772799 11427.771021,1963.735268 11424.668960,1951.522681 11416.334784,1938.476247 11406.509112,1922.164122 11394.266186,1903.538209 11390.347478,1897.481584 11387.674006,1883.372857 11380.293838,1870.306442 11370.903542,1874.755089"/>
    <poly id="158662613" type="building.yes" color="255,230,230" fill="1" layer="-1.00" shape="11623.025789,2105.442330 11634.380402,2099.842718 11612.022773,2054.841678 11600.668110,2060.441319 11623.025789,2105.442330"/>
    <poly id="158662701" type="building.yes" color="255,230,230" fill="1" layer="-1.00" shape="11571.260790,2131.592840 11563.532144,2115.791657 11565.902975,2114.631880 11560.371739,2103.313832 11570.004566,2098.638288 11575.840576,2110.582708 11573.565757,2111.684966 11580.998670,2126.870702 11571.260790,2131.592840"/>
    <poly id="158662833" type="building.yes" color="255,230,230" fill="1" layer="-1.00" shape="11590.594091,2145.297008 11585.327937,2135.238897 11600.095059,2127.580663 11598.805955,2125.109962 11621.415610,2113.379925 11626.506907,2123.108691 11604.238321,2134.665056 11605.693413,2137.465307 11590.594091,2145.297008"/>
    <poly id="158663085" type="building.yes" color="255,230,230" fill="1" layer="-1.00" shape="11788.596396,2094.737604 11799.581739,2087.958155 11841.441730,2155.241836 11830.456449,2162.021232 11788.596396,2094.737604"/>
    <poly id="158663088" type="building.yes" color="255,230,230" fill="1" layer="-1.00" shape="11864.072680,2176.204217 11866.939747,2164.121947 11916.651391,2175.837060 11913.784258,2187.919311 11864.072680,2176.204217"/>
    <poly id="158663139" type="building.yes" color="255,230,230" fill="1" layer="-1.00" shape="11783.897185,2196.209552 11748.361628,2135.520900 11758.010336,2129.912768 11793.545841,2190.601459 11783.897185,2196.209552"/>
    <poly id="158663179" type="building.yes" color="255,230,230" fill="1" layer="-1.00" shape="11835.190082,2234.499976 11837.708325,2223.912513 11891.984777,2236.697544 11889.466703,2247.296084 11835.190082,2234.499976"/>
    <poly id="158663203" type="building.yes" color="255,230,230" fill="1" layer="-1.00" shape="11805.117428,2240.979473 11784.274753,2206.225781 11793.388229,2200.806503 11814.222042,2235.560402 11805.117428,2240.979473"/>
    <poly id="158663231" type="building.yes" color="255,230,230" fill="1" layer="-1.00" shape="11874.878237,2295.601617 11887.500601,2298.645636 11897.761846,2256.414034 11885.130589,2253.370181 11874.878237,2295.601617"/>
    <poly id="158663349" type="building.yes" color="255,230,230" fill="1" layer="-1.00" shape="11830.565623,2298.593536 11833.042207,2288.550885 11873.115526,2298.369319 11870.638666,2308.400859 11830.565623,2298.593536"/>
    <poly id="158663466" type="amenity.public_building" color="237,199,199" fill="1" layer="-1.00" shape="11795.446675,2260.308756 11804.876275,2254.372229 11814.965829,2270.257410 11805.536241,2276.193927 11795.446675,2260.308756"/>
    <poly id="158663466#1" type="building.yes" color="255,230,230" fill="1" layer="-1.00" shape="11795.446675,2260.308756 11804.876275,2254.372229 11814.965829,2270.257410 11805.536241,2276.193927 11795.446675,2260.308756"/>
    <poly id="158663539" type="building.yes" color="255,230,230" fill="1" layer="-1.00" shape="11867.417623,2366.925674 11875.747319,2368.405444 11881.587162,2364.508962 11883.084998,2356.684784 11865.955729,2330.844976 11852.131058,2327.359909 11846.860293,2331.422119 11851.490072,2337.697174 11850.663238,2343.375942 11867.417623,2366.925674"/>
    <poly id="158663646" type="building.yes" color="255,230,230" fill="1" layer="-1.00" shape="11750.271923,2287.985392 11796.234450,2362.553958 11785.431288,2369.152007 11739.468924,2294.594594 11750.271923,2287.985392"/>
    <poly id="158663648" type="building.yes" color="255,230,230" fill="1" layer="-1.00" shape="11742.030101,2279.310503 11714.743192,2208.624982 11702.968146,2213.134303 11730.263980,2283.819603 11742.030101,2279.310503"/>
    <poly id="158663655" type="building.yes" color="255,230,230" fill="1" layer="-1.00" shape="11698.406801,2203.805134 11710.219286,2199.394931 11677.081219,2111.414678 11665.277453,2115.824738 11698.406801,2203.805134"/>
    <poly id="159335525" type="building.school" color="255,230,230" fill="1" layer="-1.00" shape="11841.176221,2098.621625 11841.475436,2090.112064 11835.317945,2090.240899 11834.656497,2058.628234 11830.122758,2045.968146 11804.720464,2032.812271 11807.466435,2028.036918 11799.848011,2026.775431 11802.544521,2019.636616 11807.812982,2022.212786 11812.431643,2016.121641 11842.137641,2030.941441 11877.283374,2011.323536 11884.147987,2022.180946 11883.819012,2029.270208 11852.910607,2047.378522 11852.930129,2093.513507 11846.756842,2093.309636 11846.882205,2099.301507 11841.176221,2098.621625"/>
    <poly id="159603684" type="building.train_station" color="255,230,230" fill="1" layer="-1.00" shape="12291.142380,3326.036177 12209.355038,3314.056640 12210.434440,3307.773182 12211.837757,3299.651309 12214.004712,3287.050922 12204.507215,3286.305716 12224.148108,3137.198857 12207.510094,3135.181847 12208.744978,3126.186523 12246.278612,3130.131679 12258.364113,3038.119279 12258.958352,3033.566603 12267.941220,3034.622356 12276.729059,3035.648887 12330.572731,3041.962575 12292.993603,3312.698647 12291.948917,3320.224667 12291.142380,3326.036177"/>
    <poly id="170207588" type="building.yes" color="255,230,230" fill="1" layer="-1.00" shape="8620.603331,5578.670645 8695.324495,5587.656278 8692.529095,5610.684313 8634.247311,5603.668148 8632.624428,5617.046440 8616.185038,5615.065911 8620.603331,5578.670645"/>
    <poly id="170403789" type="natural.water" color="181,209,209" fill="1" layer="-4.00" shape="8467.337550,5465.245792 8477.283218,5466.376682 8489.766894,5470.517337 8510.029068,5484.771695 8523.025268,5496.783329 8514.955894,5506.979992 8503.159028,5520.109257 8502.923399,5526.453090 8500.559801,5532.853455 8494.520172,5536.734613 8489.226801,5547.016356 8487.603357,5560.772141 8476.271365,5570.427942 8460.702733,5569.927788 8445.968193,5565.047065 8440.459370,5580.129179 8421.744208,5595.282438 8409.436110,5603.904568 8401.605801,5603.361351 8398.011724,5601.784042 8394.784271,5598.344995 8388.426078,5592.685974 8388.700845,5587.351509 8394.110709,5574.258590 8405.117035,5569.627388 8420.725721,5573.656776 8428.621786,5573.554736 8440.558538,5563.675028 8436.567046,5527.770064 8437.073498,5518.389805 8441.925289,5508.117457 8451.408781,5494.227112 8458.841121,5476.128806 8467.337550,5465.245792"/>
    <poly id="170403795" type="amenity.ranger_station" color="237,199,199" fill="1" layer="-1.00" shape="8457.115219,4498.114466 8462.632074,4499.095719 8460.839478,4509.080674 8468.990510,4510.527458 8471.801629,4494.859145 8458.142555,4492.430915 8457.115219,4498.114466"/>
    <poly id="170403795#1" type="building.yes" color="255,230,230" fill="1" layer="-1.00" shape="8457.115219,4498.114466 8462.632074,4499.095719 8460.839478,4509.080674 8468.990510,4510.527458 8471.801629,4494.859145 8458.142555,4492.430915 8457.115219,4498.114466"/>
    <poly id="170403800" type="amenity.place_of_worship" color="237,199,199" fill="1" layer="-1.00" shape="8439.021436,4571.879783 8461.236674,4575.701694 8475.536284,4493.480587 8456.007785,4490.111927 8451.876088,4513.867921 8438.582221,4511.576244 8432.883532,4544.291085 8443.508083,4546.129081 8439.021436,4571.879783"/>
    <poly id="170403800#1" type="leisure.park" color="207,245,201" fill="1" layer="-2.00" shape="8439.021436,4571.879783 8461.236674,4575.701694 8475.536284,4493.480587 8456.007785,4490.111927 8451.876088,4513.867921 8438.582221,4511.576244 8432.883532,4544.291085 8443.508083,4546.129081 8439.021436,4571.879783"/>
    <poly id="170403808" type="building.yes" color="255,230,230" fill="1" layer="-1.00" shape="8439.145058,4526.351049 8440.654908,4518.436950 8459.400160,4521.955505 8458.891535,4524.619553 8463.673437,4525.527686 8462.672429,4530.788828 8439.145058,4526.351049"/>
    <poly id="170403820" type="building.yes" color="255,230,230" fill="1" layer="-1.00" shape="8437.669021,4742.356788 8456.751517,4735.621683 8465.869374,4761.259571 8446.795763,4767.994469 8445.019754,4763.025736 8457.989719,4758.441560 8452.387819,4742.708612 8439.426427,4747.281512 8437.669021,4742.356788"/>
    <poly id="172669887" type="amenity.university" color="237,199,199" fill="1" layer="-1.00" shape="11593.843419,6017.779980 11645.038786,6076.862420 11659.751354,6064.420462 11609.916998,6004.521212 11593.843419,6017.779980"/>
    <poly id="172669887#1" type="building.university" color="255,230,230" fill="1" layer="-1.00" shape="11593.843419,6017.779980 11645.038786,6076.862420 11659.751354,6064.420462 11609.916998,6004.521212 11593.843419,6017.779980"/>
    <poly id="172672467" type="building.public" color="255,230,230" fill="1" layer="-1.00" shape="11141.857085,6712.187067 11124.416108,6713.253387 11110.481997,6707.185678 11097.723662,6695.287397 11089.722148,6675.629298 11092.288935,6662.020892 11104.689413,6641.378407 11125.732224,6630.545052 11148.067911,6624.480209 11155.603715,6620.325301 11158.926884,6625.450686 11170.801381,6618.007423 11175.807858,6622.109412 11182.024738,6616.983178 11190.592833,6624.529297 11203.022483,6643.061955 11198.630624,6646.762161 11202.100044,6653.383126 11191.216416,6661.737994 11185.537887,6663.900022 11176.213349,6684.222353 11161.267472,6698.923704 11151.271484,6709.158238 11141.857085,6712.187067"/>
    <poly id="172672467#1" type="leisure.stadium" color="207,245,201" fill="1" layer="-2.00" shape="11141.857085,6712.187067 11124.416108,6713.253387 11110.481997,6707.185678 11097.723662,6695.287397 11089.722148,6675.629298 11092.288935,6662.020892 11104.689413,6641.378407 11125.732224,6630.545052 11148.067911,6624.480209 11155.603715,6620.325301 11158.926884,6625.450686 11170.801381,6618.007423 11175.807858,6622.109412 11182.024738,6616.983178 11190.592833,6624.529297 11203.022483,6643.061955 11198.630624,6646.762161 11202.100044,6653.383126 11191.216416,6661.737994 11185.537887,6663.900022 11176.213349,6684.222353 11161.267472,6698.923704 11151.271484,6709.158238 11141.857085,6712.187067"/>
    <poly id="172788155" type="amenity.school" color="237,199,199" fill="1" layer="-1.00" shape="12354.123347,3333.713285 12353.428477,3232.243379 12457.681500,3231.178473 12457.980892,3329.848040 12354.123347,3333.713285"/>
    <poly id="172788730" type="amenity.school" color="237,199,199" fill="1" layer="-1.00" shape="12588.959182,3263.686828 12572.390467,3264.975725 12536.242123,3101.924617 12570.661914,3045.514069 12693.172439,3102.906359 12678.910035,3146.630022 12714.763950,3158.627090 12752.018557,3126.702321 12786.588962,3150.060401 12801.452096,3153.003573 12777.294116,3173.909831 12749.678755,3266.433240 12676.170443,3287.046517 12631.501821,3234.948217 12588.959182,3263.686828"/>
    <poly id="175357619" type="historic.bridge" color="128,255,128" fill="0" layer="-1.00" shape="12879.559025,2329.982012 12894.718205,2318.621388 12910.630887,2305.668805 12926.048685,2289.740421 12962.630478,2248.173171 12984.423312,2223.020801 13001.044566,2203.748412 13023.317171,2174.878511"/>
    <poly id="183044140" type="building.university" color="255,230,230" fill="1" layer="-1.00" shape="11805.624882,6324.888988 11773.930008,6290.762720 11771.295517,6293.193551 11760.838940,6281.934295 11775.779904,6268.177822 11784.808575,6277.901783 11781.757921,6280.707666 11815.838732,6317.403802 11819.764682,6313.791419 11827.537085,6322.165223 11811.417619,6337.011995 11802.678336,6327.603874 11805.624882,6324.888988"/>
    <poly id="183068872" type="building.university" color="255,230,230" fill="1" layer="-1.00" shape="11741.068136,6125.968978 11784.032413,6089.545277 11799.599528,6107.757708 11772.605439,6130.625316 11785.709137,6145.947587 11769.730167,6159.503761 11763.916216,6152.698597 11763.137304,6151.782440 11741.068136,6125.968978"/>
    <poly id="187161227" type="building.train_station" color="255,230,230" fill="1" layer="-1.00" shape="12699.603363,2601.190989 12705.206557,2544.326728 12712.910891,2466.127292 12715.765147,2466.112269 12719.003966,2431.931910 12721.642700,2432.176696 12736.280213,2433.559298 12733.032490,2467.739832 12735.950605,2468.245226 12727.697672,2546.422749 12721.643523,2603.707107 12717.968529,2603.350689 12714.524296,2637.846163 12703.861998,2636.791576 12698.929402,2636.305941 12702.382174,2601.799178 12699.603363,2601.190989"/>
    <poly id="187162277" type="building.university" color="255,230,230" fill="1" layer="-1.00" shape="12753.878457,2436.645331 12763.106470,2474.928805 12768.939517,2499.140463 12777.223319,2497.158609 12786.729482,2494.884905 12771.668552,2432.389746 12753.878457,2436.645331"/>
    <poly id="187162278" type="building.school" color="255,230,230" fill="1" layer="-1.00" shape="12771.668552,2432.389746 12753.878457,2436.645331 12741.284884,2440.049022 12738.707152,2430.422738 12757.970319,2425.181786 12755.391736,2415.089280 12770.243366,2411.472104 12774.932526,2431.677964 12771.668552,2432.389746"/>
    <poly id="187162486" type="building.school" color="255,230,230" fill="1" layer="-1.00" shape="12728.716425,2657.754237 12736.285591,2594.710296 12749.751860,2596.306004 12763.783942,2597.912158 12762.496900,2609.106408 12757.199571,2608.506221 12756.344976,2615.850575 12750.997704,2660.398614 12728.716425,2657.754237"/>
    <poly id="187178754" type="building.school" color="255,230,230" fill="1" layer="-1.00" shape="12813.352857,2839.511860 12802.762726,2822.803452 12812.113965,2816.925201 12819.537266,2812.252671 12830.127373,2828.961100 12813.352857,2839.511860"/>
    <poly id="187178755" type="amenity.parking" color="184,184,179" fill="1" layer="-1.00" shape="12871.734732,2900.395250 12851.508943,2883.953861 12871.857424,2859.141933 12875.497978,2862.096728 12905.878300,2825.031781 12901.060019,2821.113494 12920.037516,2797.928742 12941.440384,2815.300494 12871.734732,2900.395250"/>
    <poly id="187178755#1" type="building.yes" color="255,230,230" fill="1" layer="-1.00" shape="12871.734732,2900.395250 12851.508943,2883.953861 12871.857424,2859.141933 12875.497978,2862.096728 12905.878300,2825.031781 12901.060019,2821.113494 12920.037516,2797.928742 12941.440384,2815.300494 12871.734732,2900.395250"/>
    <poly id="187178756" type="building.school" color="255,230,230" fill="1" layer="-1.00" shape="12728.596717,2868.051422 12731.227836,2857.750544 12733.530114,2848.633205 12773.346308,2858.605441 12771.280527,2866.774270 12773.306094,2867.287149 12776.923195,2852.980556 12781.276713,2835.417188 12799.658486,2824.388876 12809.387449,2840.482454 12798.346166,2847.106338 12797.165662,2852.803446 12806.626435,2854.737909 12817.275270,2856.858575 12821.215796,2852.569347 12829.512320,2860.133996 12806.490908,2885.168177 12805.461267,2889.197015 12801.321351,2888.150889 12799.915169,2893.619576 12786.358052,2890.182962 12787.739343,2884.792497 12777.691492,2882.248628 12776.253455,2887.884496 12748.455298,2880.847989 12750.318467,2873.560338 12728.596717,2868.051422"/>
    <poly id="187178757" type="building.school" color="255,230,230" fill="1" layer="-1.00" shape="12798.076834,2733.106159 12784.122224,2698.695321 12791.408900,2695.946064 12790.424446,2694.079407 12785.018227,2696.312190 12780.525730,2685.549059 12790.211349,2681.717491 12801.921609,2677.077841 12806.428860,2688.551129 12803.132133,2689.807528 12817.419166,2727.031093 12805.656952,2731.294378 12805.155463,2730.128124 12798.076834,2733.106159"/>
    <poly id="187178758" type="amenity.college" color="237,199,199" fill="1" layer="-1.00" shape="13039.521927,2692.673051 13041.501499,2687.569929 13043.120369,2683.395674 13051.493520,2686.995950 13054.858314,2677.956552 13061.804412,2681.353376 13064.506800,2674.459108 13068.727593,2675.992124 13073.099708,2677.577503 13075.816632,2671.382289 13084.896697,2674.979011 13071.797712,2705.933883 13049.406925,2696.730341 13043.613210,2694.353057 13039.521927,2692.673051"/>
    <poly id="187178758#1" type="building.school" color="255,230,230" fill="1" layer="-1.00" shape="13039.521927,2692.673051 13041.501499,2687.569929 13043.120369,2683.395674 13051.493520,2686.995950 13054.858314,2677.956552 13061.804412,2681.353376 13064.506800,2674.459108 13068.727593,2675.992124 13073.099708,2677.577503 13075.816632,2671.382289 13084.896697,2674.979011 13071.797712,2705.933883 13049.406925,2696.730341 13043.613210,2694.353057 13039.521927,2692.673051"/>
    <poly id="187178760" type="building.school" color="255,230,230" fill="1" layer="-1.00" shape="12809.937477,2754.805711 12801.424752,2733.036483 12805.656952,2731.294378 12817.419166,2727.031093 12819.330566,2726.303065 12824.060338,2738.704202 12821.240411,2739.939573 12825.241042,2750.002503 12824.359812,2753.095776 12811.917305,2770.105890 12803.017921,2764.152324 12809.937477,2754.805711"/>
    <poly id="187178761" type="building.school" color="255,230,230" fill="1" layer="-1.00" shape="12832.754097,2826.086825 12822.946760,2810.472189 12841.906401,2798.754800 12840.181753,2795.715749 12846.781604,2791.815238 12855.729970,2786.533767 12857.593641,2789.458920 12865.330611,2784.568992 12873.032485,2779.690903 12882.601252,2795.310557 12832.754097,2826.086825"/>
    <poly id="187178762" type="building.school" color="255,230,230" fill="1" layer="-1.00" shape="12747.225733,2743.256231 12740.761901,2736.286249 12744.941365,2732.436047 12730.566802,2716.916591 12743.322598,2705.194939 12744.458546,2704.150012 12746.348926,2702.412226 12749.063714,2699.946824 12770.580029,2723.587790 12792.615729,2747.562122 12799.343531,2754.904076 12793.445731,2760.266427 12788.599183,2754.994484 12777.940010,2764.696475 12757.567563,2742.508098 12753.191875,2737.781415 12747.225733,2743.256231"/>
    <poly id="187178763" type="building.school" color="255,230,230" fill="1" layer="-1.00" shape="12717.937671,2776.313824 12749.779738,2791.225376 12744.331677,2802.905892 12740.244127,2800.981736 12732.363301,2797.260513 12720.828623,2824.753292 12716.778891,2834.406560 12713.446707,2833.532371 12717.402721,2864.365899 12694.232630,2866.968658 12692.993920,2857.136887 12694.183891,2856.989996 12698.044614,2856.509965 12694.999854,2828.699102 12717.937671,2776.313824"/>