<?xml version="1.0" encoding="UTF-8"?>

<!-- generated on 10/30/20 17:34:44 by Eclipse SUMO netconvert Version 1.7.0
<configuration xmlns:xsi="http://www.w3.org/2001/XMLSchema-instance" xsi:noNamespaceSchemaLocation="http://sumo.dlr.de/xsd/netconvertConfiguration.xsd">

    <input>
        <type-files value="C:\Users\LICS\sumo-1.7.0\data\typemap\osmNetconvert.typ.xml"/>
        <osm-files value="osm_bbox.osm.xml"/>
    </input>

    <output>
        <output-file value="osm.net.xml"/>
        <output.street-names value="true"/>
        <output.original-names value="true"/>
        <ptstop-output value="osm_stops.add.xml"/>
        <ptline-output value="osm_ptlines.xml"/>
    </output>

    <projection>
        <proj.utm value="true"/>
    </projection>

    <processing>
        <geometry.remove value="true"/>
        <roundabouts.guess value="true"/>
    </processing>

    <tls_building>
        <tls.discard-simple value="true"/>
        <tls.join value="true"/>
        <tls.guess-signals value="true"/>
        <tls.default-type value="actuated"/>
    </tls_building>

    <ramp_guessing>
        <ramps.guess value="true"/>
    </ramp_guessing>

    <junctions>
        <junctions.join value="true"/>
        <junctions.corner-detail value="5"/>
    </junctions>

    <railway>
        <railway.topology.repair value="true"/>
        <railway.topology.repair.stop-turn value="true"/>
    </railway>

    <report>
        <verbose value="true"/>
        <aggregate-warnings value="5"/>
    </report>

</configuration>
-->

<additional xmlns:xsi="http://www.w3.org/2001/XMLSchema-instance" xsi:noNamespaceSchemaLocation="http://sumo.dlr.de/xsd/additional_file.xsd">
    <busStop id="-287321417" name="성신여대입구(돈암)" lane="-379994121#0_0" startPos="913.42" endPos="1113.42" friendlyPos="true">
        <access lane="-37401789_0" pos="7.16" length="19.23" friendlyPos="1"/>
        <access lane="-536149444#0_0" pos="0.00" length="8.29" friendlyPos="1"/>
        <access lane="37401789_0" pos="0.00" length="24.62" friendlyPos="1"/>
        <access lane="536149444#0_0" pos="15.99" length="19.50" friendlyPos="1"/>
        <access lane="536149445#0_0" pos="0.00" length="27.24" friendlyPos="1"/>
    </busStop>
    <busStop id="-287323400" lane="-192247534#1_0" startPos="4414.48" endPos="4614.48" friendlyPos="true">
        <access lane="-218769245#0_0" pos="110.69" length="8.31" friendlyPos="1"/>
        <access lane="183521163#0_0" pos="0.00" length="15.36" friendlyPos="1"/>
        <access lane="183895353#2_0" pos="32.88" length="12.19" friendlyPos="1"/>
        <access lane="183895355#0_0" pos="0.00" length="14.95" friendlyPos="1"/>
        <access lane="218769245#0_0" pos="0.00" length="5.40" friendlyPos="1"/>
    </busStop>
    <busStop id="-3426724601" name="청량리" lane="-782891445#4_0" startPos="0.00" endPos="100.00" friendlyPos="true">
        <access lane="-379724030#0_0" pos="42.07" length="18.67" friendlyPos="1"/>
        <access lane="183521154#2_0" pos="57.95" length="22.29" friendlyPos="1"/>
        <access lane="379724030#0_0" pos="0.00" length="20.20" friendlyPos="1"/>
        <access lane="516643230#3_0" pos="30.36" length="19.90" friendlyPos="1"/>
        <access lane="516643230#4_0" pos="0.00" length="10.39" friendlyPos="1"/>
    </busStop>
    <busStop id="-353186868" name="길음" lane="-379994121#0_0" startPos="2318.89" endPos="2518.89" friendlyPos="true"/>
    <busStop id="-355172924" name="용두" lane="-180192151#0_0" startPos="805.51" endPos="1005.51" friendlyPos="true">
        <access lane="-218835375_0" pos="0.19" length="13.75" friendlyPos="1"/>
        <access lane="218835375_0" pos="0.01" length="10.25" friendlyPos="1"/>
        <access lane="481393626#2_0" pos="4.86" length="23.81" friendlyPos="1"/>
        <access lane="802402472#0_0" pos="0.00" length="25.38" friendlyPos="1"/>
        <access lane="815640306#1_0" pos="9.36" length="25.50" friendlyPos="1"/>
    </busStop>
    <busStop id="-355173138" name="수유(강북구청)" lane="-379994121#0_0" startPos="6508.57" endPos="6708.57" friendlyPos="true"/>
    <busStop id="-355173140" name="미아(서울사이버대학)" lane="-379994121#0_0" startPos="5119.98" endPos="5319.98" friendlyPos="true"/>
    <busStop id="-355173148" name="쌍문" lane="-379994121#0_0" startPos="7915.73" endPos="8115.73" friendlyPos="true"/>
    <busStop id="-355173201" name="혜화(서울대학교병원)" lane="-379994121#1_0" startPos="1228.77" endPos="1428.77" friendlyPos="true">
        <access lane="-232594130#6_0" pos="0.00" length="37.57" friendlyPos="1"/>
        <access lane="-517641042#5_0" pos="15.06" length="1.58" friendlyPos="1"/>
        <access lane="-517641042#6_0" pos="6.60" length="44.32" friendlyPos="1"/>
        <access lane="232594130#6_0" pos="91.06" length="33.11" friendlyPos="1"/>
        <access lane="517641042#5_0" pos="38.87" length="6.38" friendlyPos="1"/>
    </busStop>
    <busStop id="-355173208" name="동대문역사문화공원" lane="-785130604_0" startPos="439.67" endPos="639.67" friendlyPos="true">
        <access lane="-218923171#0_0" pos="0.00" length="42.17" friendlyPos="1"/>
        <access lane="-218923171#1_0" pos="86.80" length="44.44" friendlyPos="1"/>
        <access lane="-651694689_0" pos="59.46" length="17.07" friendlyPos="1"/>
        <access lane="218923171#0_0" pos="52.44" length="46.96" friendlyPos="1"/>
        <access lane="651694689_0" pos="20.82" length="12.27" friendlyPos="1"/>
    </busStop>
    <busStop id="-357860122" name="퇴계로6가" lane="-218773868#5_0" startPos="5.08" endPos="20.08" friendlyPos="true" lines="507"/>
    <busStop id="-3833429765" name="동대문" lane="-379994122_0" startPos="97.62" endPos="297.62" friendlyPos="true">
        <access lane="183521049#1_0" pos="39.61" length="22.02" friendlyPos="1"/>
        <access lane="760127120#1_0" pos="43.51" length="22.12" friendlyPos="1"/>
        <access lane="760259688#0_0" pos="160.53" length="21.56" friendlyPos="1"/>
        <access lane="770890583#2_0" pos="27.72" length="19.65" friendlyPos="1"/>
        <access lane="773060741#0_0" pos="0.00" length="14.85" friendlyPos="1"/>
    </busStop>
    <busStop id="-3835922764" name="미아사거리" lane="-379994121#0_0" startPos="3588.53" endPos="3788.53" friendlyPos="true"/>
    <busStop id="-4852979526" name="북한산보국문" lane="-192247534#1_0" startPos="1245.55" endPos="1445.55" friendlyPos="true"/>
    <busStop id="-5549718797" name="광희동" lane="-218923171#1_0" startPos="69.97" endPos="84.97" friendlyPos="true" lines="507"/>
    <busStop id="-5694832466" name="신답" lane="-623046654#0_0" startPos="15.32" endPos="215.32" friendlyPos="true">
        <access lane="183521197#0-AddedOffRampEdge_0" pos="62.76" length="101.06" friendlyPos="1"/>
        <access lane="203491742#3_0" pos="119.22" length="59.00" friendlyPos="1"/>
        <access lane="238163917_0" pos="130.89" length="22.27" friendlyPos="1"/>
        <access lane="482140286#1_0" pos="76.75" length="102.73" friendlyPos="1"/>
        <access lane="482140286#2_0" pos="2.05" length="99.20" friendlyPos="1"/>
    </busStop>
    <busStop id="-5754623761" name="성신여대입구" lane="-192247534#1_0" startPos="3530.83" endPos="3730.83" friendlyPos="true">
        <access lane="-37401789_0" pos="7.16" length="23.38" friendlyPos="1"/>
        <access lane="-536149444#0_0" pos="0.00" length="17.67" friendlyPos="1"/>
        <access lane="-536149444#1_0" pos="12.24" length="21.70" friendlyPos="1"/>
        <access lane="37401789_0" pos="0.00" length="22.78" friendlyPos="1"/>
        <access lane="536149444#0_0" pos="15.99" length="20.70" friendlyPos="1"/>
    </busStop>
    <busStop id="-5887905548" name="청량리" lane="-405403200#0_0" startPos="0.00" endPos="100.00" friendlyPos="true">
        <access lane="416580152_0" pos="72.34" length="131.99" friendlyPos="1"/>
        <access lane="416580153_0" pos="102.93" length="111.49" friendlyPos="1"/>
        <access lane="538210514_0" pos="129.30" length="163.92" friendlyPos="1"/>
        <access lane="550974490_0" pos="49.82" length="112.97" friendlyPos="1"/>
        <access lane="550974493_0" pos="34.61" length="100.33" friendlyPos="1"/>
    </busStop>
    <busStop id="-5887905549" name="청량리" lane="-405047378#1_0" startPos="148.71" endPos="337.43" friendlyPos="true">
        <access lane="416580152_0" pos="72.62" length="117.45" friendlyPos="1"/>
        <access lane="416580153_0" pos="99.45" length="97.13" friendlyPos="1"/>
        <access lane="550481003_0" pos="64.54" length="156.36" friendlyPos="1"/>
        <access lane="550974490_0" pos="49.82" length="107.85" friendlyPos="1"/>
        <access lane="550974493_0" pos="24.45" length="101.42" friendlyPos="1"/>
    </busStop>
    <busStop id="-5890636980" name="왕십리" lane="-778783886#1_0" startPos="45.62" endPos="245.62" friendlyPos="true">
        <access lane="-419735655#0_0" pos="123.83" length="69.72" friendlyPos="1"/>
        <access lane="188174589#1_0" pos="113.63" length="65.41" friendlyPos="1"/>
        <access lane="188174594_0" pos="22.64" length="51.34" friendlyPos="1"/>
        <access lane="188174597_0" pos="23.76" length="60.71" friendlyPos="1"/>
        <access lane="188174605_0" pos="0.00" length="72.70" friendlyPos="1"/>
    </busStop>
    <busStop id="-5899527462" name="신설동" lane="-192247534#0_0" startPos="0.00" endPos="102.54" friendlyPos="true">
        <access lane="-218660683#3_0" pos="0.00" length="22.20" friendlyPos="1"/>
        <access lane="-518362761#0_0" pos="14.74" length="3.74" friendlyPos="1"/>
        <access lane="183521037#1_0" pos="11.85" length="3.51" friendlyPos="1"/>
        <access lane="183521054#0_0" pos="0.75" length="17.59" friendlyPos="1"/>
        <access lane="518362761#0_0" pos="2.42" length="8.54" friendlyPos="1"/>
    </busStop>
    <busStop id="-5899527463" name="신설동" lane="-180192151#3_0" startPos="0.00" endPos="33.87" friendlyPos="true">
        <access lane="-318883566_0" pos="0.00" length="31.73" friendlyPos="1"/>
        <access lane="183521201#2_0" pos="7.75" length="11.35" friendlyPos="1"/>
        <access lane="318883566_0" pos="38.54" length="28.09" friendlyPos="1"/>
        <access lane="379589786_0" pos="0.00" length="32.14" friendlyPos="1"/>
        <access lane="538878501#4_0" pos="76.82" length="17.48" friendlyPos="1"/>
    </busStop>
    <busStop id="-5899527478" name="회기" lane="-405047385#0_0" startPos="117.50" endPos="317.50" friendlyPos="true">
        <access lane="-505884870#6_0" pos="0.00" length="27.05" friendlyPos="1"/>
        <access lane="-516636553#3_0" pos="0.00" length="38.25" friendlyPos="1"/>
        <access lane="379782002#0_0" pos="0.00" length="40.92" friendlyPos="1"/>
        <access lane="505884870#6_0" pos="51.31" length="31.85" friendlyPos="1"/>
        <access lane="516636553#3_0" pos="44.52" length="34.44" friendlyPos="1"/>
    </busStop>
    <busStop id="-5899527480" name="외대앞" lane="-405047385#1_0" startPos="492.03" endPos="692.03" friendlyPos="true"/>
    <busStop id="-5902127690" name="청량리" lane="-768714278#0_0" startPos="23.86" endPos="123.86" friendlyPos="true">
        <access lane="-379724030#0_0" pos="42.07" length="29.28" friendlyPos="1"/>
        <access lane="183521154#2_0" pos="58.07" length="11.45" friendlyPos="1"/>
        <access lane="379724030#0_0" pos="0.00" length="30.17" friendlyPos="1"/>
        <access lane="516643230#3_0" pos="30.36" length="26.68" friendlyPos="1"/>
        <access lane="516643230#4_0" pos="0.00" length="20.82" friendlyPos="1"/>
    </busStop>
    <busStop id="-5914829686" name="한성대입구(삼선교)" lane="-379994121#1_0" startPos="2162.87" endPos="2275.97" friendlyPos="true">
        <access lane="536149361#5_0" pos="15.30" length="16.24" friendlyPos="1"/>
        <access lane="632698279#0_0" pos="0.00" length="20.70" friendlyPos="1"/>
        <access lane="632698280#3_0" pos="0.15" length="21.07" friendlyPos="1"/>
        <access lane="632698280#4_0" pos="1.83" length="18.82" friendlyPos="1"/>
        <access lane="632698280#5_0" pos="0.00" length="21.67" friendlyPos="1"/>
    </busStop>
    <busStop id="-5933896997" name="충무로" lane="-379994123#0_0" startPos="0.00" endPos="191.25" friendlyPos="true">
        <access lane="218773869#6_0" pos="107.39" length="0.99" friendlyPos="1"/>
        <access lane="768088525#0_0" pos="29.44" length="34.48" friendlyPos="1"/>
        <access lane="768088525#1_0" pos="68.19" length="73.40" friendlyPos="1"/>
        <access lane="773159859#2_0" pos="51.15" length="82.20" friendlyPos="1"/>
        <access lane="785130598#0_0" pos="76.95" length="17.53" friendlyPos="1"/>
    </busStop>
    <busStop id="-6033544411" name="금호" lane="-640473006#2_0" startPos="288.33" endPos="488.33" friendlyPos="true">
        <access lane="97537672_0" pos="0.00" length="213.11" friendlyPos="1"/>
        <access lane="97537673_0" pos="348.06" length="207.92" friendlyPos="1"/>
    </busStop>
    <busStop id="-6033544415" name="약수" lane="-640473006#2_0" startPos="1183.56" endPos="1383.56" friendlyPos="true">
        <access lane="-218681380#6_0" pos="0.00" length="4.86" friendlyPos="1"/>
        <access lane="-218960891#14_0" pos="0.00" length="10.26" friendlyPos="1"/>
        <access lane="218681380#6_0" pos="15.98" length="9.64" friendlyPos="1"/>
        <access lane="218960891#14_0" pos="31.50" length="5.49" friendlyPos="1"/>
        <access lane="519097168#3_0" pos="16.97" length="29.11" friendlyPos="1"/>
    </busStop>
    <busStop id="-6033544418" name="동대입구" lane="-640473006#2_0" startPos="1842.49" endPos="2042.49" friendlyPos="true">
        <access lane="-218662402_0" pos="66.14" length="5.49" friendlyPos="1"/>
        <access lane="-37403487#0_0" pos="32.90" length="11.57" friendlyPos="1"/>
        <access lane="-37928420#0_0" pos="23.49" length="16.81" friendlyPos="1"/>
        <access lane="218662402_0" pos="0.00" length="7.33" friendlyPos="1"/>
        <access lane="37403487#0_0" pos="0.00" length="8.86" friendlyPos="1"/>
    </busStop>
    <busStop id="-6033544421" name="충무로" lane="-640473006#0_0" startPos="0.00" endPos="194.32" friendlyPos="true">
        <access lane="218773869#6_0" pos="96.04" length="11.41" friendlyPos="1"/>
        <access lane="768088525#0_0" pos="29.44" length="15.87" friendlyPos="1"/>
        <access lane="768088525#1_0" pos="68.19" length="54.60" friendlyPos="1"/>
        <access lane="773159859#2_0" pos="51.15" length="72.80" friendlyPos="1"/>
        <access lane="785130598#0_0" pos="87.70" length="31.06" friendlyPos="1"/>
    </busStop>
    <busStop id="-6033544425" name="안국" lane="-640473006#0_0" startPos="2166.93" endPos="2366.93" friendlyPos="true"/>
    <busStop id="-6033544430" name="경복궁" lane="-640473006#0_0" startPos="3313.74" endPos="3513.74" friendlyPos="true"/>
    <busStop id="-6033544433" name="독립문" lane="-640473006#0_0" startPos="4914.72" endPos="5114.72" friendlyPos="true"/>
    <busStop id="-6033544441" name="무악재" lane="-640473006#0_0" startPos="6010.05" endPos="6210.05" friendlyPos="true"/>
    <busStop id="-6033544469" name="불광" lane="-640473006#0_0" startPos="9618.58" endPos="9818.58" friendlyPos="true"/>
    <busStop id="-6033544618" name="을지로3가 역" lane="-640473006#0_0" startPos="579.96" endPos="779.96" friendlyPos="true">
        <access lane="-381456453#0_0" pos="50.47" length="293.61" friendlyPos="1"/>
        <access lane="184083181#4_0" pos="163.21" length="13.68" friendlyPos="1"/>
        <access lane="184083183#0_0" pos="3.76" length="12.78" friendlyPos="1"/>
        <access lane="381456453#0_0" pos="0.00" length="295.39" friendlyPos="1"/>
        <access lane="770894972_0" pos="1416.36" length="0.92" friendlyPos="1"/>
    </busStop>
    <busStop id="-6033544620" name="종로3가" lane="-640473006#0_0" startPos="1213.65" endPos="1413.65" friendlyPos="true"/>
    <busStop id="-6033544670" name="홍제" lane="-640473006#0_0" startPos="6907.43" endPos="7107.43" friendlyPos="true"/>
    <busStop id="-6033544681" name="녹번" lane="-640473006#0_0" startPos="8496.79" endPos="8696.79" friendlyPos="true"/>
    <busStop id="-6033544692" name="연신내" lane="-640473006#0_0" startPos="10982.42" endPos="11182.42" friendlyPos="true"/>
    <busStop id="-6033544706" name="구파발" lane="-640473006#0_0" startPos="12940.01" endPos="13040.01" friendlyPos="true"/>
    <busStop id="-6036160322" name="한성대입구" lane="-640794440#1_0" startPos="2154.40" endPos="2268.01" friendlyPos="true">
        <access lane="183521064#0_0" pos="0.00" length="26.11" friendlyPos="1"/>
        <access lane="536149361#5_0" pos="14.74" length="22.07" friendlyPos="1"/>
        <access lane="632698279#0_0" pos="0.00" length="26.67" friendlyPos="1"/>
        <access lane="632698280#4_0" pos="20.90" length="22.61" friendlyPos="1"/>
        <access lane="632698280#5_0" pos="0.20" length="22.98" friendlyPos="1"/>
    </busStop>
    <busStop id="-6036160329" name="동대문" lane="-640794402_0" startPos="5.52" endPos="205.52" friendlyPos="true">
        <access lane="183272548#2_0" pos="0.00" length="24.36" friendlyPos="1"/>
        <access lane="760127120#1_0" pos="42.79" length="15.88" friendlyPos="1"/>
        <access lane="770890583#2_0" pos="27.72" length="22.43" friendlyPos="1"/>
        <access lane="773060741#0_0" pos="0.00" length="19.71" friendlyPos="1"/>
        <access lane="800200228#6_0" pos="37.00" length="19.44" friendlyPos="1"/>
    </busStop>
    <busStop id="-6036160332" name="동대문역사문화공원" lane="-640794409#0_0" startPos="1070.30" endPos="1270.30" friendlyPos="true">
        <access lane="-218923171#0_0" pos="0.00" length="48.88" friendlyPos="1"/>
        <access lane="-218923171#1_0" pos="86.80" length="50.55" friendlyPos="1"/>
        <access lane="-651694689_0" pos="56.27" length="21.83" friendlyPos="1"/>
        <access lane="218923171#0_0" pos="52.44" length="53.68" friendlyPos="1"/>
        <access lane="651694689_0" pos="24.01" length="17.03" friendlyPos="1"/>
    </busStop>
    <busStop id="-6036160335" name="충무로" lane="-640794419_0" startPos="30.25" endPos="230.25" friendlyPos="true">
        <access lane="218773869#6_0" pos="107.60" length="8.63" friendlyPos="1"/>
        <access lane="768088525#0_0" pos="30.63" length="37.78" friendlyPos="1"/>
        <access lane="768088525#1_0" pos="68.19" length="75.83" friendlyPos="1"/>
        <access lane="773159859#2_0" pos="51.70" length="80.14" friendlyPos="1"/>
        <access lane="785130598#0_0" pos="77.08" length="9.88" friendlyPos="1"/>
    </busStop>
    <busStop id="-6036160827" name="쌍문" lane="-640794440#0_0" startPos="7918.26" endPos="8118.26" friendlyPos="true"/>
    <busStop id="-6036160831" name="수유" lane="-640794440#0_0" startPos="6509.67" endPos="6709.67" friendlyPos="true"/>
    <busStop id="-6036160836" name="미아" lane="-640794440#0_0" startPos="5126.08" endPos="5326.08" friendlyPos="true"/>
    <busStop id="-6036160839" name="미아사거리" lane="-640794440#0_0" startPos="3593.39" endPos="3793.39" friendlyPos="true"/>
    <busStop id="-6036160849" name="길음" lane="-640794440#0_0" startPos="2321.92" endPos="2521.92" friendlyPos="true"/>
    <busStop id="-6036160858" name="성신여대입구" lane="-640794440#0_0" startPos="911.70" endPos="1111.70" friendlyPos="true">
        <access lane="-37401789_0" pos="7.16" length="24.62" friendlyPos="1"/>
        <access lane="-536149444#0_0" pos="0.00" length="12.20" friendlyPos="1"/>
        <access lane="-536149445#0_0" pos="31.68" length="23.64" friendlyPos="1"/>
        <access lane="536149444#0_0" pos="15.99" length="14.24" friendlyPos="1"/>
        <access lane="536149445#0_0" pos="0.00" length="21.94" friendlyPos="1"/>
    </busStop>
    <busStop id="-6036160873" name="혜화" lane="-640794440#1_0" startPos="1225.77" endPos="1425.77" friendlyPos="true">
        <access lane="-232594130#6_0" pos="0.00" length="39.49" friendlyPos="1"/>
        <access lane="-517641042#5_0" pos="15.18" length="4.89" friendlyPos="1"/>
        <access lane="232594130#6_0" pos="91.06" length="35.39" friendlyPos="1"/>
        <access lane="517641042#5_0" pos="38.74" length="0.09" friendlyPos="1"/>
        <access lane="517641042#6_0" pos="0.00" length="44.44" friendlyPos="1"/>
    </busStop>
    <busStop id="1797587546" name="신당" lane="168498720#2_0" startPos="580.55" endPos="780.55" friendlyPos="true">
        <access lane="-117770547#0_0" pos="43.41" length="17.14" friendlyPos="1"/>
        <access lane="-218684411#8_0" pos="68.05" length="6.47" friendlyPos="1"/>
        <access lane="117770547#0_0" pos="0.00" length="21.69" friendlyPos="1"/>
        <access lane="218684411#8_0" pos="5.06" length="1.67" friendlyPos="1"/>
        <access lane="229028006#0_0" pos="0.00" length="23.02" friendlyPos="1"/>
    </busStop>
    <busStop id="2111825348" name="중계" lane="396816937_0" startPos="5035.09" endPos="5235.09" friendlyPos="true"/>
    <busStop id="287321417" name="성신여대입구(돈암)" lane="379994121#0_0" startPos="7771.26" endPos="7709.12" friendlyPos="true" lines="4">
        <access lane="-37401789_0" pos="7.16" length="19.23" friendlyPos="1"/>
        <access lane="-536149444#0_0" pos="0.00" length="8.29" friendlyPos="1"/>
        <access lane="37401789_0" pos="0.00" length="24.62" friendlyPos="1"/>
        <access lane="536149444#0_0" pos="15.99" length="19.50" friendlyPos="1"/>
        <access lane="536149445#0_0" pos="0.00" length="27.24" friendlyPos="1"/>
    </busStop>
    <busStop id="287323400" lane="192247534#1_0" startPos="921.45" endPos="1121.45" friendlyPos="true">
        <access lane="-218769245#0_0" pos="110.69" length="8.31" friendlyPos="1"/>
        <access lane="183521163#0_0" pos="0.00" length="15.36" friendlyPos="1"/>
        <access lane="183895353#2_0" pos="32.88" length="12.19" friendlyPos="1"/>
        <access lane="183895355#0_0" pos="0.00" length="14.95" friendlyPos="1"/>
        <access lane="218769245#0_0" pos="0.00" length="5.40" friendlyPos="1"/>
    </busStop>
    <busStop id="3279010892" name="신당" lane="469657938_0" startPos="18207.63" endPos="15647.11" friendlyPos="true">
        <access lane="-218684408#0_0" pos="0.00" length="8.47" friendlyPos="1"/>
        <access lane="-229028340#0_0" pos="56.81" length="11.10" friendlyPos="1"/>
        <access lane="218684408#0_0" pos="105.44" length="5.95" friendlyPos="1"/>
        <access lane="218684408#1_0" pos="0.00" length="15.93" friendlyPos="1"/>
        <access lane="229028340#0_0" pos="0.00" length="8.75" friendlyPos="1"/>
    </busStop>
    <busStop id="3279010922" name="동묘앞" lane="469657938_0" startPos="18900.22" endPos="15647.11" friendlyPos="true">
        <access lane="-333725872#5_0" pos="25.85" length="5.93" friendlyPos="1"/>
        <access lane="180192153#6_0" pos="154.43" length="47.70" friendlyPos="1"/>
        <access lane="183521185#0_0" pos="0.00" length="56.71" friendlyPos="1"/>
        <access lane="333725872#5_0" pos="42.43" length="1.13" friendlyPos="1"/>
        <access lane="788674858_0" pos="0.00" length="57.73" friendlyPos="1"/>
    </busStop>
    <busStop id="3426724596" name="제기동" lane="782891445#2_0" startPos="944.90" endPos="1144.90" friendlyPos="true" lines="1">
        <access lane="-37400668#5_0" pos="5.94" length="14.56" friendlyPos="1"/>
        <access lane="183521143#11_0" pos="1.12" length="22.72" friendlyPos="1"/>
        <access lane="37400668#5_0" pos="381.92" length="9.76" friendlyPos="1"/>
        <access lane="550974509_0" pos="0.00" length="28.26" friendlyPos="1"/>
        <access lane="816487877_0" pos="0.70" length="16.37" friendlyPos="1"/>
    </busStop>
    <busStop id="3426724597" name="종로3가" lane="637016283_0" startPos="204.29" endPos="404.29" friendlyPos="true" lines="1">
        <access lane="220027347#0_0" pos="411.82" length="6.40" friendlyPos="1"/>
        <access lane="517641011#3_0" pos="245.86" length="26.64" friendlyPos="1"/>
        <access lane="732213463#14_0" pos="224.52" length="316.65" friendlyPos="1"/>
        <access lane="771233459#0_0" pos="143.19" length="209.35" friendlyPos="1"/>
        <access lane="771233459#1_0" pos="2.89" length="207.74" friendlyPos="1"/>
    </busStop>
    <busStop id="3426724601" name="청량리" lane="782891445#4_0" startPos="24.86" endPos="124.86" friendlyPos="true" lines="1">
        <access lane="-379724030#0_0" pos="42.07" length="18.67" friendlyPos="1"/>
        <access lane="183521154#2_0" pos="57.95" length="22.29" friendlyPos="1"/>
        <access lane="379724030#0_0" pos="0.00" length="20.20" friendlyPos="1"/>
        <access lane="516643230#3_0" pos="30.36" length="19.90" friendlyPos="1"/>
        <access lane="516643230#4_0" pos="0.00" length="10.39" friendlyPos="1"/>
    </busStop>
    <busStop id="3429566621" name="합정" lane="469657938_0" startPos="6174.85" endPos="6374.85" friendlyPos="true"/>
    <busStop id="3438345419" name="동대문역사문화공원" lane="396816939_0" startPos="7748.70" endPos="7902.45" friendlyPos="true">
        <access lane="-218773868#0_0" pos="28.29" length="16.51" friendlyPos="1"/>
        <access lane="-218923171#2_0" pos="0.00" length="12.67" friendlyPos="1"/>
        <access lane="-520307306#10_0" pos="0.00" length="20.69" friendlyPos="1"/>
        <access lane="218773868#0_0" pos="0.00" length="13.95" friendlyPos="1"/>
        <access lane="218923171#2_0" pos="33.95" length="8.02" friendlyPos="1"/>
    </busStop>
    <busStop id="353186868" name="길음" lane="379994121#0_0" startPos="6365.79" endPos="6565.79" friendlyPos="true" lines="4"/>
    <busStop id="355172742" name="종로5가" lane="768714278#4_0" startPos="1745.62" endPos="1945.62" friendlyPos="true" lines="1">
        <access lane="-482167260#2_0" pos="0.00" length="22.09" friendlyPos="1"/>
        <access lane="183521181#0_0" pos="0.00" length="17.72" friendlyPos="1"/>
        <access lane="184083202#0_0" pos="0.00" length="22.03" friendlyPos="1"/>
        <access lane="218835937#6_0" pos="122.68" length="16.16" friendlyPos="1"/>
        <access lane="482167260#2_0" pos="16.20" length="22.84" friendlyPos="1"/>
    </busStop>
    <busStop id="355172774" name="석계" lane="469657938_0" startPos="26211.73" endPos="15647.11" friendlyPos="true"/>
    <busStop id="355172924" name="용두" lane="180192151#0_0" startPos="377.32" endPos="577.32" friendlyPos="true">
        <access lane="-218835375_0" pos="0.19" length="13.75" friendlyPos="1"/>
        <access lane="218835375_0" pos="0.01" length="10.25" friendlyPos="1"/>
        <access lane="481393626#2_0" pos="4.86" length="23.81" friendlyPos="1"/>
        <access lane="802402472#0_0" pos="0.00" length="25.38" friendlyPos="1"/>
        <access lane="815640306#1_0" pos="9.36" length="25.50" friendlyPos="1"/>
    </busStop>
    <busStop id="355172962" name="을지로입구" lane="672454243#1_0" startPos="1839.97" endPos="2039.97" friendlyPos="true">
        <access lane="770894972_0" pos="2307.72" length="3.26" friendlyPos="1"/>
    </busStop>
    <busStop id="355172983" name="상왕십리" lane="168498720#1_0" startPos="435.06" endPos="635.06" friendlyPos="true">
        <access lane="-218684409#0_0" pos="69.24" length="2.50" friendlyPos="1"/>
        <access lane="-379962854#1_0" pos="0.00" length="70.54" friendlyPos="1"/>
        <access lane="-420073636_0" pos="99.75" length="71.62" friendlyPos="1"/>
        <access lane="218684409#0_0" pos="73.93" length="7.30" friendlyPos="1"/>
        <access lane="379962854#1_0" pos="38.29" length="75.32" friendlyPos="1"/>
    </busStop>
    <busStop id="355173018" name="홍제" lane="379994119_0" startPos="5937.75" endPos="6137.75" friendlyPos="true"/>
    <busStop id="355173021" name="녹번" lane="379994119_0" startPos="4344.46" endPos="4544.46" friendlyPos="true"/>
    <busStop id="355173026" name="무악재" lane="379994119_0" startPos="6831.41" endPos="7031.41" friendlyPos="true"/>
    <busStop id="355173044" name="동대입구" lane="379994119_0" startPos="13950.73" endPos="13398.80" friendlyPos="true">
        <access lane="-244384770#14_0" pos="0.00" length="8.32" friendlyPos="1"/>
        <access lane="-37403487#0_0" pos="32.90" length="9.98" friendlyPos="1"/>
        <access lane="244384770#14_0" pos="114.31" length="9.59" friendlyPos="1"/>
        <access lane="37403487#0_0" pos="0.00" length="11.74" friendlyPos="1"/>
        <access lane="37928420#0_0" pos="0.00" length="13.63" friendlyPos="1"/>
    </busStop>
    <busStop id="355173059" name="경복궁" lane="379994119_0" startPos="9535.13" endPos="9735.13" friendlyPos="true"/>
    <busStop id="355173067" name="금호" lane="379994119_0" startPos="15497.03" endPos="13398.80" friendlyPos="true">
        <access lane="97537672_0" pos="0.00" length="213.27" friendlyPos="1"/>
        <access lane="97537673_0" pos="348.06" length="206.58" friendlyPos="1"/>
    </busStop>
    <busStop id="355173107" name="삼각지" lane="469657938_0" startPos="11913.31" endPos="12113.31" friendlyPos="true"/>
    <busStop id="355173138" name="수유(강북구청)" lane="379994121#0_0" startPos="2176.11" endPos="2376.11" friendlyPos="true" lines="4"/>
    <busStop id="355173140" name="미아(서울사이버대학)" lane="379994121#0_0" startPos="3564.70" endPos="3764.70" friendlyPos="true" lines="4"/>
    <busStop id="355173148" name="쌍문" lane="379994121#0_0" startPos="768.96" endPos="968.96" friendlyPos="true" lines="4"/>
    <busStop id="355173201" name="혜화(서울대학교병원)" lane="379994121#1_0" startPos="847.56" endPos="1047.56" friendlyPos="true" lines="4">
        <access lane="-232594130#6_0" pos="0.00" length="37.57" friendlyPos="1"/>
        <access lane="-517641042#5_0" pos="15.06" length="1.58" friendlyPos="1"/>
        <access lane="-517641042#6_0" pos="6.60" length="44.32" friendlyPos="1"/>
        <access lane="232594130#6_0" pos="91.06" length="33.11" friendlyPos="1"/>
        <access lane="517641042#5_0" pos="38.87" length="6.38" friendlyPos="1"/>
    </busStop>
    <busStop id="355173208" name="동대문역사문화공원" lane="785130604_0" startPos="501.80" endPos="701.80" friendlyPos="true">
        <access lane="-218923171#0_0" pos="0.00" length="42.17" friendlyPos="1"/>
        <access lane="-218923171#1_0" pos="86.80" length="44.44" friendlyPos="1"/>
        <access lane="-651694689_0" pos="59.46" length="17.07" friendlyPos="1"/>
        <access lane="218923171#0_0" pos="52.44" length="46.96" friendlyPos="1"/>