<?xml version="1.0" encoding="UTF-8"?>
<!-- generated on 2020-10-30 17:35:02.942749 by osmWebWizard.py v1_7_0+0000-714814baed
  options: 
-->
<routes xmlns:xsi="http://www.w3.org/2001/XMLSchema-instance" xsi:noNamespaceSchemaLocation="http://sumo.dlr.de/xsd/routes_file.xsd">
    <vType id="pt_bus" vClass="bus"/>
    <vType id="pt_tram" vClass="tram"/>
    <vType id="pt_train" vClass="rail"/>
    <vType id="pt_subway" vClass="rail_urban"/>
    <vType id="pt_light_rail" vClass="rail_urban"/>
    <vType id="pt_monorail" vClass="rail"/>
    <vType id="pt_trolleybus" vClass="bus"/>
    <vType id="pt_aerialway" vClass="bus"/>
    <vType id="pt_ferry" vClass="ship"/>
    <route id="pt_subway_272:4" edges="779278180#0" >
        <stop busStop="5925991074" duration="30.00" until="31.0"/> <!-- 왕십리 -->
    </route>
    <route id="pt_subway_272:0" edges="405451628 778783889 778783883 -778783887 405453026#0 405453026#1 405453024 627723647 779278180#0 779278180#1" >
        <stop busStop="5925991074" duration="30.00" until="103.0"/> <!-- 왕십리 -->
    </route>
    <route id="pt_subway_272:3" edges="405451628 778783889 778783883 -778783887 405453026#0 405453026#1 405453024 627723647 779278180#0 779278180#1" >
        <stop busStop="5925991074" duration="30.00" until="127.0"/> <!-- 왕십리 -->
    </route>
    <route id="pt_subway_272:1" edges="405479640 405479643#1 782655749 405479644 778783887 -778783883 -778783889 -405451628 778783888 405430939#1 405430939#2 405404112 778783895 405404110" >
        <stop busStop="7746266267" duration="30.00" until="100.0"/> <!-- 왕십리 -->
        <stop busStop="7271361461" duration="30.00" until="230.0"/> <!-- 청량리 -->
    </route>
    <route id="pt_subway_272:2" edges="405479640 405479643#1 782655749 405479644 778783887 -778783883 -778783889 -405451628 778783888 405430939#1 405430939#2 405404112 778783895 405404110" >
        <stop busStop="7746266267" duration="30.00" until="133.0"/> <!-- 왕십리 -->
    </route>
    <route id="pt_subway_272:5" edges="405451628 778783889 778783883 -778783887 405453026#0 405453026#1 405453024 627723647 779278180#0 779278180#1" >
        <stop busStop="5925991074" duration="30.00" until="113.0"/> <!-- 왕십리 -->
    </route>
    <route id="pt_subway_272:7" edges="405479640 405479643#1" >
        <stop busStop="7746266267" duration="30.00" until="100.0"/> <!-- 왕십리 -->
    </route>
    <route id="pt_subway_272:6" edges="405479640 405479643#1 782655749 405479644 778783887 -778783883 -778783889 -405451628 778783888 405430939#1 405430939#2 405404112 778783895 405404110" >
        <stop busStop="7746266267" duration="30.00" until="106.0"/> <!-- 왕십리 -->
    </route>
    <route id="pt_bus_2220:0" edges="280210083#0 280210083#1 247789699#0 -379953366#1 -379953368 280210086 -37401411#5 -37401411#4 -37401411#3 -37401411#2 -37401411#1 -37401411#0 218781561#0 218781561#1 218781561#2 218781561#3 519066111#0 519066111#1 218655250#0 218655250#1" >
    </route>
    <route id="pt_subway_272:10" edges="405479640 405479643#1" >
        <stop busStop="7746266267" duration="30.00" until="100.0"/> <!-- 왕십리 -->
    </route>
    <route id="pt_bus_507:0" edges="183272584 180368918#0 180368918#3 180368918#4 180368918#6 180368918#7 180368918#8 218773868#0 218773868#1 218773868#2 218773868#3 218773868#4 218773868#5 218773868#6 428260105 428260110 785130600#0 785130600#1 785130600#2 785130600#3 219094151#1 218773869#1 218773869#3 218773869#4 218773869#5 218773869#6" >
        <stop busStop="5548859163" duration="30.00" until="55.0"/> <!-- 광희문.광희동사거리 -->
        <stop busStop="357858137" duration="30.00" until="158.0"/> <!-- 퇴계로5가 -->
        <stop busStop="357849854" duration="30.00" until="221.0"/> <!-- 대한극장앞 -->
    </route>
    <route id="pt_subway_1:0" edges="768714278#0 -787885254#1 787885255#1 768714278#2 768714278#3 768714278#4 637016283" >
        <stop busStop="5902127690" duration="30.00" until="31.0"/> <!-- 청량리 -->
        <stop busStop="5902125881" duration="30.00" until="115.0"/> <!-- 제기동 -->
        <stop busStop="5902127698" duration="30.00" until="201.0"/> <!-- 신설동 -->
        <stop busStop="5902125882" duration="30.00" until="284.0"/> <!-- 동묘앞 -->
        <stop busStop="5767417129" duration="30.00" until="355.0"/> <!-- 동대문역 -->
        <stop busStop="355172742" duration="30.00" until="429.0"/> <!-- 종로5가 -->
        <stop busStop="3426724597" duration="30.00" until="512.0"/> <!-- 종로3가 -->
        <stop busStop="660871450" duration="30.00" until="593.0"/> <!-- 종각 -->
    </route>
    <route id="pt_subway_2:0" edges="625534096 628671359 168498720#0 168498720#1 168498720#2 672454243#0 672454243#1" >
        <stop busStop="5937884704" duration="30.00" until="371.0"/> <!-- 시청 -->
    </route>
    <route id="pt_subway_1:1" edges="637016278 379994109 379994098 782891445#0 782891445#1 782891445#2 787885254#0 -787885255#0 782891445#4" >
        <stop busStop="5852580182" duration="30.00" until="48.0"/> <!-- 종각 -->
        <stop busStop="3833430103" duration="30.00" until="129.0"/> <!-- 종로3가 -->
        <stop busStop="3833430104" duration="30.00" until="212.0"/> <!-- 종로5가 -->
        <stop busStop="3833430100" duration="30.00" until="286.0"/> <!-- 동대문역 -->
        <stop busStop="5899527461" duration="30.00" until="355.0"/> <!-- 동묘앞 -->
        <stop busStop="5899527464" duration="30.00" until="436.0"/> <!-- 신설동 -->
        <stop busStop="3426724596" duration="30.00" until="526.0"/> <!-- 제기동 -->
        <stop busStop="3426724601" duration="30.00" until="605.0"/> <!-- 청량리 -->
    </route>
    <route id="pt_subway_1:10" edges="637016278 379994109" >
        <stop busStop="5852580182" duration="30.00" until="48.0"/> <!-- 종각 -->
        <stop busStop="3833430103" duration="30.00" until="129.0"/> <!-- 종로3가 -->
        <stop busStop="3833430104" duration="30.00" until="212.0"/> <!-- 종로5가 -->
        <stop busStop="3833430100" duration="30.00" until="286.0"/> <!-- 동대문역 -->
    </route>
    <route id="pt_subway_1:2" edges="768714278#0 -787885254#1 787885255#1 768714278#2 768714278#3 768714278#4 637016283" >
        <stop busStop="5902127690" duration="30.00" until="31.0"/> <!-- 청량리 -->
        <stop busStop="5902125881" duration="30.00" until="117.0"/> <!-- 제기동 -->
        <stop busStop="5902127698" duration="30.00" until="204.0"/> <!-- 신설동 -->
        <stop busStop="5902125882" duration="30.00" until="288.0"/> <!-- 동묘앞 -->
        <stop busStop="5767417129" duration="30.00" until="359.0"/> <!-- 동대문역 -->
        <stop busStop="355172742" duration="30.00" until="433.0"/> <!-- 종로5가 -->
        <stop busStop="3426724597" duration="30.00" until="516.0"/> <!-- 종로3가 -->
        <stop busStop="660871450" duration="30.00" until="597.0"/> <!-- 종각 -->
    </route>
    <route id="pt_subway_1:3" edges="637016278 379994109 379994098 782891445#0 782891445#1 782891445#2 787885254#0 -787885255#0 782891445#4" >
        <stop busStop="5852580182" duration="30.00" until="48.0"/> <!-- 종각 -->
        <stop busStop="3833430103" duration="30.00" until="129.0"/> <!-- 종로3가 -->
        <stop busStop="3833430104" duration="30.00" until="212.0"/> <!-- 종로5가 -->
        <stop busStop="3833430100" duration="30.00" until="286.0"/> <!-- 동대문역 -->
        <stop busStop="5899527461" duration="30.00" until="356.0"/> <!-- 동묘앞 -->
        <stop busStop="5899527464" duration="30.00" until="437.0"/> <!-- 신설동 -->
        <stop busStop="3426724596" duration="30.00" until="527.0"/> <!-- 제기동 -->
        <stop busStop="3426724601" duration="30.00" until="606.0"/> <!-- 청량리 -->
    </route>
    <route id="pt_bus_507:1" edges="-218773868#6 -218773868#5 -218773868#4 -218773868#3 -218773868#2 -218773868#1 -218773868#0 -218923171#2 -218923171#1 -218923171#0 218923178#0 218923178#1 218923178#2 218923178#3" >
        <stop busStop="-357860122" duration="30.00" until="43.0"/> <!-- 퇴계로6가 -->
        <stop busStop="-5549718797" duration="30.00" until="115.0"/> <!-- 광희동 -->
        <stop busStop="357868774" duration="30.00" until="170.0"/> <!-- 동대문역사문화공원 -->
    </route>
    <route id="pt_light_rail_W:1" edges="192247534#0 192247534#1" >
        <stop busStop="5899527462" duration="30.00" until="31.0"/> <!-- 신설동 -->
        <stop busStop="287323400" duration="30.00" until="122.0"/> <!-- None -->
        <stop busStop="5754623761" duration="30.00" until="202.0"/> <!-- 성신여대입구 -->
    </route>
    <route id="pt_subway_GC:0" edges="405047378#0 405047378#1 405403197#0 405403197#1 405403191 405047371#0 405047371#1 405403206 405047362" >
        <stop busStop="5887905549" duration="30.00" until="64.0"/> <!-- 청량리 -->
        <stop busStop="5887905551" duration="30.00" until="162.0"/> <!-- 회기 -->
    </route>
    <route id="pt_subway_2:1" edges="-180192151#3 -180192151#2 -180192151#1 -180192151#0 623046654#0 623046654#1 623046654#2 623046654#3 623046654#4" >
        <stop busStop="-5899527463" duration="30.00" until="31.0"/> <!-- 신설동 -->
        <stop busStop="-355172924" duration="30.00" until="120.0"/> <!-- 용두 -->
        <stop busStop="5694832466" duration="30.00" until="202.0"/> <!-- 신답 -->
        <stop busStop="5856128334" duration="30.00" until="283.0"/> <!-- 용답 -->
    </route>
    <route id="pt_subway_1:11" edges="768714278#0 -787885254#1 787885255#1 768714278#2 768714278#3 768714278#4 637016283" >
        <stop busStop="5902127690" duration="30.00" until="31.0"/> <!-- 청량리 -->
        <stop busStop="5902125881" duration="30.00" until="115.0"/> <!-- 제기동 -->
        <stop busStop="5902127698" duration="30.00" until="201.0"/> <!-- 신설동 -->
        <stop busStop="5902125882" duration="30.00" until="284.0"/> <!-- 동묘앞 -->
        <stop busStop="5767417129" duration="30.00" until="355.0"/> <!-- 동대문역 -->
        <stop busStop="355172742" duration="30.00" until="429.0"/> <!-- 종로5가 -->
        <stop busStop="3426724597" duration="30.00" until="512.0"/> <!-- 종로3가 -->
        <stop busStop="660871450" duration="30.00" until="593.0"/> <!-- 종각 -->
    </route>
    <route id="pt_subway_272:8" edges="779278180#0 779278180#0 779278180#1" >
        <stop busStop="5925991074" duration="30.00" until="31.0"/> <!-- 왕십리 -->
    </route>
    <route id="pt_subway_2:2" edges="619733912 598334266#0 598334266#1 598334266#2 598334266#3 598334266#4 598334266#5 598334266#6 598334266#7 598334266#8 642603943#0 642603943#1 642603943#2" >
        <stop busStop="5864568510" duration="30.00" until="66.0"/> <!-- 성수 -->
        <stop busStop="5694839797" duration="30.00" until="198.0"/> <!-- 용답 -->
        <stop busStop="6049150862" duration="30.00" until="277.0"/> <!-- 신답 -->
        <stop busStop="6049150853" duration="30.00" until="359.0"/> <!-- 용두 -->
        <stop busStop="6049150844" duration="30.00" until="447.0"/> <!-- 신설동 -->
    </route>
    <route id="pt_subway_G·J:1" edges="405431935#0 405431935#1 405431935#2 405431935#3 405431935#4 405431935#5 778783888 405430939#1 405430939#2 778783896 405430422#1 405047378#0 405047378#1 405403197#0 405403197#1 405403191 405047371#0 405047371#1 405403206 405047362" >
        <stop busStop="4076814733" duration="30.00" until="108.0"/> <!-- 응봉 -->
        <stop busStop="5890636979" duration="30.00" until="211.0"/> <!-- 왕십리 -->
        <stop busStop="5887905549" duration="30.00" until="340.0"/> <!-- 청량리 -->
        <stop busStop="5887905551" duration="30.00" until="438.0"/> <!-- 회기 -->
    </route>
    <route id="pt_subway_1:6" edges="637016278 379994109 379994098 782891445#0 782891445#1 782891445#2 787885254#0 -787885255#0 782891445#4 180192149#0 180192149#1 405054041 405047385#0 405047385#1" >
        <stop busStop="5852580182" duration="30.00" until="48.0"/> <!-- 종각 -->
        <stop busStop="3833430103" duration="30.00" until="129.0"/> <!-- 종로3가 -->
        <stop busStop="3833430104" duration="30.00" until="212.0"/> <!-- 종로5가 -->
        <stop busStop="3833430100" duration="30.00" until="286.0"/> <!-- 동대문역 -->
        <stop busStop="5899527461" duration="30.00" until="356.0"/> <!-- 동묘앞 -->
        <stop busStop="5899527464" duration="30.00" until="437.0"/> <!-- 신설동 -->
        <stop busStop="3426724596" duration="30.00" until="527.0"/> <!-- 제기동 -->
        <stop busStop="3426724601" duration="30.00" until="606.0"/> <!-- 청량리 -->
        <stop busStop="5899527478" duration="30.00" until="719.0"/> <!-- 회기 -->
        <stop busStop="5899527480" duration="30.00" until="801.0"/> <!-- 외대앞 -->
    </route>
    <route id="pt_subway_1:7" edges="637016278 379994109 379994098 782891445#0 782891445#1 782891445#2 787885254#0 -787885255#0 782891445#4 180192149#0 180192149#1 405054041 405047385#0 405047385#1" >
        <stop busStop="5852580182" duration="30.00" until="48.0"/> <!-- 종각 -->
        <stop busStop="3833430103" duration="30.00" until="129.0"/> <!-- 종로3가 -->
        <stop busStop="3833430104" duration="30.00" until="212.0"/> <!-- 종로5가 -->
        <stop busStop="3833430100" duration="30.00" until="286.0"/> <!-- 동대문역 -->
        <stop busStop="5899527461" duration="30.00" until="356.0"/> <!-- 동묘앞 -->
        <stop busStop="5899527464" duration="30.00" until="437.0"/> <!-- 신설동 -->
        <stop busStop="3426724596" duration="30.00" until="527.0"/> <!-- 제기동 -->
        <stop busStop="3426724601" duration="30.00" until="606.0"/> <!-- 청량리 -->
        <stop busStop="5899527478" duration="30.00" until="719.0"/> <!-- 회기 -->
        <stop busStop="5899527480" duration="30.00" until="802.0"/> <!-- 외대앞 -->
    </route>
    <route id="pt_subway_1:8" edges="637016278 379994109 379994098 782891445#0 782891445#1 782891445#2 787885254#0 -787885255#0 782891445#4 180192149#0 180192149#1 405054041 405047385#0 405047385#1" >
        <stop busStop="5852580182" duration="30.00" until="48.0"/> <!-- 종각 -->
        <stop busStop="3833430103" duration="30.00" until="129.0"/> <!-- 종로3가 -->
        <stop busStop="3833430104" duration="30.00" until="212.0"/> <!-- 종로5가 -->
        <stop busStop="3833430100" duration="30.00" until="286.0"/> <!-- 동대문역 -->
        <stop busStop="5899527461" duration="30.00" until="356.0"/> <!-- 동묘앞 -->
        <stop busStop="5899527464" duration="30.00" until="437.0"/> <!-- 신설동 -->
        <stop busStop="3426724596" duration="30.00" until="527.0"/> <!-- 제기동 -->
        <stop busStop="3426724601" duration="30.00" until="606.0"/> <!-- 청량리 -->
        <stop busStop="5899527478" duration="30.00" until="719.0"/> <!-- 회기 -->
        <stop busStop="5899527480" duration="30.00" until="802.0"/> <!-- 외대앞 -->
    </route>
    <route id="pt_subway_1:9" edges="637016278 379994109 379994098 782891445#0 782891445#1 782891445#2 787885254#0 -787885255#0 782891445#4 180192149#0 180192149#1 405054041 405047385#0 405047385#1" >
        <stop busStop="5852580182" duration="30.00" until="48.0"/> <!-- 종각 -->
        <stop busStop="3833430103" duration="30.00" until="129.0"/> <!-- 종로3가 -->
        <stop busStop="3833430104" duration="30.00" until="212.0"/> <!-- 종로5가 -->
        <stop busStop="3833430100" duration="30.00" until="286.0"/> <!-- 동대문역 -->
        <stop busStop="5899527461" duration="30.00" until="356.0"/> <!-- 동묘앞 -->
        <stop busStop="5899527464" duration="30.00" until="437.0"/> <!-- 신설동 -->
        <stop busStop="3426724596" duration="30.00" until="527.0"/> <!-- 제기동 -->
        <stop busStop="3426724601" duration="30.00" until="606.0"/> <!-- 청량리 -->
        <stop busStop="5899527478" duration="30.00" until="719.0"/> <!-- 회기 -->
        <stop busStop="5899527480" duration="30.00" until="802.0"/> <!-- 외대앞 -->
    </route>
    <route id="pt_subway_4:0" edges="379994121#0 379994121#1 -379994122 -785130604 -379994120#1 -379994120#0 -379994123#0" >
        <stop busStop="355173148" duration="30.00" until="80.0"/> <!-- 쌍문 -->
        <stop busStop="355173138" duration="30.00" until="179.0"/> <!-- 수유(강북구청) -->
        <stop busStop="355173140" duration="30.00" until="277.0"/> <!-- 미아(서울사이버대학) -->
        <stop busStop="3835922764" duration="30.00" until="380.0"/> <!-- 미아사거리 -->
        <stop busStop="353186868" duration="30.00" until="474.0"/> <!-- 길음 -->
        <stop busStop="287321417" duration="30.00" until="563.0"/> <!-- 성신여대입구(돈암) -->
        <stop busStop="5914829686" duration="30.00" until="657.0"/> <!-- 한성대입구(삼선교) -->
        <stop busStop="355173201" duration="30.00" until="739.0"/> <!-- 혜화(서울대학교병원) -->
        <stop busStop="-3833429765" duration="30.00" until="842.0"/> <!-- 동대문 -->
        <stop busStop="-355173208" duration="30.00" until="913.0"/> <!-- 동대문역사문화공원 -->
        <stop busStop="-5933896997" duration="30.00" until="1009.0"/> <!-- 충무로 -->
    </route>
    <route id="pt_subway_272:9" edges="779278180#0 779278180#0 779278180#1" >
        <stop busStop="5925991074" duration="30.00" until="31.0"/> <!-- 왕십리 -->
    </route>
    <route id="pt_subway_4:3" edges="-640794419 -640794409#1 -640794409#0 -640794402 -640794440#1 -640794440#0" >
        <stop busStop="-6036160335" duration="30.00" until="48.0"/> <!-- 충무로 -->
        <stop busStop="-6036160332" duration="30.00" until="144.0"/> <!-- 동대문역사문화공원 -->
        <stop busStop="-6036160329" duration="30.00" until="215.0"/> <!-- 동대문 -->
        <stop busStop="-6036160873" duration="30.00" until="318.0"/> <!-- 혜화 -->
        <stop busStop="-6036160322" duration="30.00" until="396.0"/> <!-- 한성대입구 -->
        <stop busStop="-6036160858" duration="30.00" until="484.0"/> <!-- 성신여대입구 -->
        <stop busStop="-6036160849" duration="30.00" until="583.0"/> <!-- 길음 -->
        <stop busStop="-6036160839" duration="30.00" until="677.0"/> <!-- 미아사거리 -->
        <stop busStop="-6036160836" duration="30.00" until="780.0"/> <!-- 미아 -->
        <stop busStop="-6036160831" duration="30.00" until="878.0"/> <!-- 수유 -->
        <stop busStop="-6036160827" duration="30.00" until="977.0"/> <!-- 쌍문 -->
    </route>
    <route id="pt_subway_1:4" edges="712248060#0 712248060#1 768714278#0 -787885254#1 787885255#1 768714278#2 768714278#3 768714278#4 637016283" >
        <stop busStop="4246459937" duration="30.00" until="45.0"/> <!-- 신이문 -->
        <stop busStop="5899527479" duration="30.00" until="117.0"/> <!-- 외대앞 -->
        <stop busStop="5899527477" duration="30.00" until="199.0"/> <!-- 회기 -->
        <stop busStop="5902127690" duration="30.00" until="565.0"/> <!-- 청량리 -->
        <stop busStop="5902125881" duration="30.00" until="648.0"/> <!-- 제기동 -->
        <stop busStop="5902127698" duration="30.00" until="734.0"/> <!-- 신설동 -->
        <stop busStop="5902125882" duration="30.00" until="817.0"/> <!-- 동묘앞 -->
        <stop busStop="5767417129" duration="30.00" until="888.0"/> <!-- 동대문역 -->
        <stop busStop="355172742" duration="30.00" until="962.0"/> <!-- 종로5가 -->
        <stop busStop="3426724597" duration="30.00" until="1045.0"/> <!-- 종로3가 -->
        <stop busStop="660871450" duration="30.00" until="1126.0"/> <!-- 종각 -->
    </route>
    <route id="pt_subway_4:1" edges="379994121#0 379994121#1 -379994122 -785130604 -379994120#1 -379994120#0 -379994123#0" >
        <stop busStop="355173148" duration="30.00" until="76.0"/> <!-- 쌍문 -->
        <stop busStop="355173138" duration="30.00" until="175.0"/> <!-- 수유(강북구청) -->
        <stop busStop="355173140" duration="30.00" until="273.0"/> <!-- 미아(서울사이버대학) -->
        <stop busStop="3835922764" duration="30.00" until="376.0"/> <!-- 미아사거리 -->
        <stop busStop="353186868" duration="30.00" until="470.0"/> <!-- 길음 -->
        <stop busStop="287321417" duration="30.00" until="596.0"/> <!-- 성신여대입구(돈암) -->
        <stop busStop="5914829686" duration="30.00" until="692.0"/> <!-- 한성대입구(삼선교) -->
        <stop busStop="355173201" duration="30.00" until="774.0"/> <!-- 혜화(서울대학교병원) -->
        <stop busStop="-3833429765" duration="30.00" until="878.0"/> <!-- 동대문 -->
        <stop busStop="-355173208" duration="30.00" until="949.0"/> <!-- 동대문역사문화공원 -->
        <stop busStop="-5933896997" duration="30.00" until="1045.0"/> <!-- 충무로 -->
    </route>
    <route id="pt_subway_4:4" edges="-640794419 -640794409#1 -640794409#0 -640794402 -640794440#1 -640794440#0" >
        <stop busStop="-6036160335" duration="30.00" until="35.0"/> <!-- 충무로 -->
        <stop busStop="-6036160332" duration="30.00" until="131.0"/> <!-- 동대문역사문화공원 -->
        <stop busStop="-6036160329" duration="30.00" until="202.0"/> <!-- 동대문 -->
        <stop busStop="-6036160873" duration="30.00" until="305.0"/> <!-- 혜화 -->
        <stop busStop="-6036160322" duration="30.00" until="428.0"/> <!-- 한성대입구 -->
        <stop busStop="-6036160858" duration="30.00" until="517.0"/> <!-- 성신여대입구 -->
        <stop busStop="-6036160849" duration="30.00" until="617.0"/> <!-- 길음 -->
        <stop busStop="-6036160839" duration="30.00" until="711.0"/> <!-- 미아사거리 -->
        <stop busStop="-6036160836" duration="30.00" until="815.0"/> <!-- 미아 -->
        <stop busStop="-6036160831" duration="30.00" until="913.0"/> <!-- 수유 -->
        <stop busStop="-6036160827" duration="30.00" until="1012.0"/> <!-- 쌍문 -->
    </route>
    <route id="pt_subway_5:0" edges="396816939" >
        <stop busStop="6039313614" duration="30.00" until="31.0"/> <!-- 군자 -->
        <stop busStop="355173372" duration="30.00" until="130.0"/> <!-- 장한평 -->
        <stop busStop="355173370" duration="30.00" until="223.0"/> <!-- 답십리 -->
        <stop busStop="355173368" duration="30.00" until="310.0"/> <!-- 마장 -->
        <stop busStop="5801302007" duration="30.00" until="388.0"/> <!-- 왕십리 -->
        <stop busStop="355173365" duration="30.00" until="459.0"/> <!-- 행당 -->
        <stop busStop="355173364" duration="30.00" until="541.0"/> <!-- 신금호 -->
        <stop busStop="355173445" duration="30.00" until="622.0"/> <!-- 청구 -->
        <stop busStop="3438345419" duration="30.00" until="695.0"/> <!-- 동대문역사문화공원 -->
        <stop busStop="5935738065" duration="30.00" until="726.0"/> <!-- 을지로4가 -->
    </route>
    <route id="pt_subway_G·J:0" edges="405047353 405047363 405403200#0 405403200#1 405403200#2 405403200#3 405430402#0 405430402#1 405430421#1 405430421#2 405430421#3 405430421#4 778783889 778783886#0 778783886#1 778783886#2 778783886#3 778783886#4" >
        <stop busStop="5887905550" duration="30.00" until="104.0"/> <!-- 회기 -->
        <stop busStop="5887905548" duration="30.00" until="485.0"/> <!-- 청량리 -->
        <stop busStop="5890636980" duration="30.00" until="627.0"/> <!-- 왕십리 -->
        <stop busStop="5890636978" duration="30.00" until="725.0"/> <!-- 응봉 -->
    </route>
    <route id="pt_light_rail_W:0" edges="192247534#1 -192247534#1 -192247534#0 192247534#0 192247534#1 -192247534#1 -192247534#0 192247534#0 192247534#1 -192247534#1 -192247534#0" >
        <stop busStop="4852979526" duration="30.00" until="200.0"/> <!-- 북한산보국문 -->
        <stop busStop="5754623761" duration="30.00" until="498.0"/> <!-- 성신여대입구 -->
        <stop busStop="287323400" duration="30.00" until="682.0"/> <!-- None -->
        <stop busStop="-5899527462" duration="30.00" until="774.0"/> <!-- 신설동 -->
    </route>
    <route id="pt_subway_4:2" edges="379994121#0 379994121#1 -379994122 -785130604 -379994120#1 -379994120#0 -379994123#0" >
        <stop busStop="355173148" duration="30.00" until="116.0"/> <!-- 쌍문 -->
        <stop busStop="355173138" duration="30.00" until="216.0"/> <!-- 수유(강북구청) -->
        <stop busStop="355173140" duration="30.00" until="315.0"/> <!-- 미아(서울사이버대학) -->
        <stop busStop="3835922764" duration="30.00" until="418.0"/> <!-- 미아사거리 -->
        <stop busStop="353186868" duration="30.00" until="512.0"/> <!-- 길음 -->
        <stop busStop="287321417" duration="30.00" until="629.0"/> <!-- 성신여대입구(돈암) -->
        <stop busStop="5914829686" duration="30.00" until="726.0"/> <!-- 한성대입구(삼선교) -->
        <stop busStop="355173201" duration="30.00" until="809.0"/> <!-- 혜화(서울대학교병원) -->
        <stop busStop="-3833429765" duration="30.00" until="913.0"/> <!-- 동대문 -->
        <stop busStop="-355173208" duration="30.00" until="985.0"/> <!-- 동대문역사문화공원 -->
        <stop busStop="-5933896997" duration="30.00" until="1081.0"/> <!-- 충무로 -->
    </route>
    <route id="pt_subway_GC:1" edges="405047353 405047363 405403200#0 405403200#1 405403200#2 405403200#3" >
        <stop busStop="5887905550" duration="30.00" until="104.0"/> <!-- 회기 -->
        <stop busStop="5887905548" duration="30.00" until="712.0"/> <!-- 청량리 -->
    </route>
    <route id="pt_subway_4:5" edges="-640794419 -640794409#1 -640794409#0 -640794402 -640794440#1 -640794440#0" >
        <stop busStop="-6036160335" duration="30.00" until="48.0"/> <!-- 충무로 -->
        <stop busStop="-6036160332" duration="30.00" until="144.0"/> <!-- 동대문역사문화공원 -->
        <stop busStop="-6036160329" duration="30.00" until="215.0"/> <!-- 동대문 -->
        <stop busStop="-6036160873" duration="30.00" until="318.0"/> <!-- 혜화 -->
        <stop busStop="-6036160322" duration="30.00" until="427.0"/> <!-- 한성대입구 -->
        <stop busStop="-6036160858" duration="30.00" until="517.0"/> <!-- 성신여대입구 -->
        <stop busStop="-6036160849" duration="30.00" until="617.0"/> <!-- 길음 -->
        <stop busStop="-6036160839" duration="30.00" until="712.0"/> <!-- 미아사거리 -->
        <stop busStop="-6036160836" duration="30.00" until="816.0"/> <!-- 미아 -->
        <stop busStop="-6036160831" duration="30.00" until="914.0"/> <!-- 수유 -->
        <stop busStop="-6036160827" duration="30.00" until="1013.0"/> <!-- 쌍문 -->
    </route>
    <route id="pt_subway_4:6" edges="379994121#0 379994121#1 -379994122 -785130604 -379994120#1 -379994120#0 -379994123#0" >
        <stop busStop="355173148" duration="30.00" until="80.0"/> <!-- 쌍문 -->
        <stop busStop="355173138" duration="30.00" until="179.0"/> <!-- 수유(강북구청) -->
        <stop busStop="355173140" duration="30.00" until="277.0"/> <!-- 미아(서울사이버대학) -->
        <stop busStop="3835922764" duration="30.00" until="380.0"/> <!-- 미아사거리 -->
        <stop busStop="353186868" duration="30.00" until="474.0"/> <!-- 길음 -->
        <stop busStop="287321417" duration="30.00" until="563.0"/> <!-- 성신여대입구(돈암) -->
        <stop busStop="5914829686" duration="30.00" until="657.0"/> <!-- 한성대입구(삼선교) -->
        <stop busStop="355173201" duration="30.00" until="739.0"/> <!-- 혜화(서울대학교병원) -->
        <stop busStop="-3833429765" duration="30.00" until="842.0"/> <!-- 동대문 -->
        <stop busStop="-355173208" duration="30.00" until="913.0"/> <!-- 동대문역사문화공원 -->
        <stop busStop="-5933896997" duration="30.00" until="1009.0"/> <!-- 충무로 -->
    </route>
    <route id="pt_subway_1:13" edges="637016278 379994109 379994098 782891445#0 782891445#1 782891445#2 787885254#0 -787885255#0 782891445#4 180192149#0 180192149#1 405054041 405047385#0 405047385#1" >
        <stop busStop="5852580182" duration="30.00" until="48.0"/> <!-- 종각 -->
        <stop busStop="3833430103" duration="30.00" until="129.0"/> <!-- 종로3가 -->
        <stop busStop="3833430104" duration="30.00" until="212.0"/> <!-- 종로5가 -->
        <stop busStop="3833430100" duration="30.00" until="286.0"/> <!-- 동대문역 -->
        <stop busStop="5899527461" duration="30.00" until="355.0"/> <!-- 동묘앞 -->
        <stop busStop="5899527464" duration="30.00" until="436.0"/> <!-- 신설동 -->
        <stop busStop="3426724596" duration="30.00" until="526.0"/> <!-- 제기동 -->
        <stop busStop="3426724601" duration="30.00" until="605.0"/> <!-- 청량리 -->
        <stop busStop="5899527478" duration="30.00" until="718.0"/> <!-- 회기 -->
        <stop busStop="5899527480" duration="30.00" until="800.0"/> <!-- 외대앞 -->
    </route>
    <route id="pt_subway_1:15" edges="637016278 379994109 379994098 782891445#0 782891445#1 782891445#2 787885254#0 -787885255#0 782891445#4 180192149#0 180192149#1 405054041 405047385#0 405047385#1" >
        <stop busStop="5852580182" duration="30.00" until="31.0"/> <!-- 종각 -->
        <stop busStop="3833430103" duration="30.00" until="112.0"/> <!-- 종로3가 -->
        <stop busStop="3833430104" duration="30.00" until="195.0"/> <!-- 종로5가 -->
        <stop busStop="3833430100" duration="30.00" until="269.0"/> <!-- 동대문역 -->
        <stop busStop="5899527461" duration="30.00" until="376.0"/> <!-- 동묘앞 -->
        <stop busStop="5899527464" duration="30.00" until="458.0"/> <!-- 신설동 -->
        <stop busStop="3426724596" duration="30.00" until="548.0"/> <!-- 제기동 -->
        <stop busStop="3426724601" duration="30.00" until="628.0"/> <!-- 청량리 -->
        <stop busStop="5899527478" duration="30.00" until="741.0"/> <!-- 회기 -->
        <stop busStop="5899527480" duration="30.00" until="824.0"/> <!-- 외대앞 -->
    </route>
    <route id="pt_subway_4:7" edges="-640794419 -640794409#1 -640794409#0 -640794402 -640794440#1 -640794440#0" >
        <stop busStop="-6036160335" duration="30.00" until="48.0"/> <!-- 충무로 -->
        <stop busStop="-6036160332" duration="30.00" until="144.0"/> <!-- 동대문역사문화공원 -->
        <stop busStop="-6036160329" duration="30.00" until="215.0"/> <!-- 동대문 -->
        <stop busStop="-6036160873" duration="30.00" until="318.0"/> <!-- 혜화 -->
        <stop busStop="-6036160322" duration="30.00" until="396.0"/> <!-- 한성대입구 -->
        <stop busStop="-6036160858" duration="30.00" until="484.0"/> <!-- 성신여대입구 -->
        <stop busStop="-6036160849" duration="30.00" until="583.0"/> <!-- 길음 -->
        <stop busStop="-6036160839" duration="30.00" until="677.0"/> <!-- 미아사거리 -->
        <stop busStop="-6036160836" duration="30.00" until="780.0"/> <!-- 미아 -->
        <stop busStop="-6036160831" duration="30.00" until="878.0"/> <!-- 수유 -->
        <stop busStop="-6036160827" duration="30.00" until="977.0"/> <!-- 쌍문 -->
    </route>
    <route id="pt_subway_1:16" edges="637016278 379994109 379994098 782891445#0 782891445#1 782891445#2 787885254#0 -787885255#0 782891445#4 180192149#0 180192149#1 405054041 405047385#0 405047385#1" >
        <stop busStop="5852580182" duration="30.00" until="48.0"/> <!-- 종각 -->
        <stop busStop="3833430103" duration="30.00" until="129.0"/> <!-- 종로3가 -->
        <stop busStop="3833430104" duration="30.00" until="212.0"/> <!-- 종로5가 -->
        <stop busStop="3833430100" duration="30.00" until="286.0"/> <!-- 동대문역 -->
        <stop busStop="5899527461" duration="30.00" until="379.0"/> <!-- 동묘앞 -->