<?xml version="1.0" encoding="UTF-8"?>

<!-- generated on 09/27/21 19:54:25 by Eclipse SUMO duarouter Version 1.7.0
<configuration xmlns:xsi="http://www.w3.org/2001/XMLSchema-instance" xsi:noNamespaceSchemaLocation="http://sumo.dlr.de/xsd/duarouterConfiguration.xsd">

    <input>
        <net-file value="C:\Users\gggla\Sumo\2021-09-27-19-54-09\osm.net.xml"/>
        <route-files value="C:\Users\gggla\Sumo\2021-09-27-19-54-09\osm.passenger.trips.xml"/>
    </input>

    <output>
        <output-file value="C:\Users\gggla\Sumo\2021-09-27-19-54-09\osm.passenger.trips.xml.tmp"/>
        <write-trips value="true"/>
    </output>

    <time>
        <begin value="0"/>
        <end value="3600"/>
    </time>

    <report>
        <no-warnings value="true"/>
        <ignore-errors value="true"/>
        <no-step-log value="true"/>
    </report>

</configuration>
-->

<routes xmlns:xsi="http://www.w3.org/2001/XMLSchema-instance" xsi:noNamespaceSchemaLocation="http://sumo.dlr.de/xsd/routes_file.xsd">
    <vType id="veh_passenger" vClass="passenger"/>
    <trip id="0" type="veh_passenger" depart="0.00" departLane="best" from="379581059#1" to="379567160#0"/>
    <trip id="1" type="veh_passenger" depart="2.49" departLane="best" from="448204368#5" to="-37401829#5"/>
    <trip id="2" type="veh_passenger" depart="4.98" departLane="best" departSpeed="max" from="-700433858#9" to="-183521126#7"/>
    <trip id="3" type="veh_passenger" depart="7.48" departLane="best" departSpeed="max" from="-379581070#2" to="183895346#1"/>
    <trip id="4" type="veh_passenger" depart="9.97" departLane="best" from="-183521163#2" to="-379574237"/>
    <trip id="5" type="veh_passenger" depart="12.46" departLane="best" from="379556002" to="26600610#1"/>
    <trip id="6" type="veh_passenger" depart="14.95" departLane="best" departSpeed="max" from="-379581071" to="378331051#0"/>
    <trip id="7" type="veh_passenger" depart="17.44" departLane="best" from="394282840#5" to="-176922094#0"/>
    <trip id="8" type="veh_passenger" depart="19.94" departLane="best" from="393642755#8" to="379574258#3"/>
    <trip id="9" type="veh_passenger" depart="22.43" departLane="best" from="-416457251#1" to="-379556012#0"/>
    <trip id="10" type="veh_passenger" depart="24.92" departLane="best" from="700433858#4" to="-416453525"/>
    <trip id="11" type="veh_passenger" depart="27.41" departLane="best" from="416453515#0" to="378331065#2"/>
    <trip id="12" type="veh_passenger" depart="29.90" departLane="best" from="394282840#0" to="379584829"/>
    <trip id="13" type="veh_passenger" depart="32.39" departLane="best" from="218769245#2" to="842103897#3"/>
    <trip id="14" type="veh_passenger" depart="34.89" departLane="best" from="-518705243#1" to="337111078#1"/>
    <trip id="15" type="veh_passenger" depart="37.38" departLane="best" from="416211541#5" to="379555981"/>
    <trip id="16" type="veh_passenger" depart="39.87" departLane="best" from="416456952#0" to="37402625#4"/>
    <trip id="17" type="veh_passenger" depart="42.36" departLane="best" from="379574243#0" to="-183895347#5"/>
    <trip id="18" type="veh_passenger" depart="44.85" departLane="best" departSpeed="max" from="-379584829" to="-393310535#1"/>
    <trip id="19" type="veh_passenger" depart="47.35" departLane="best" from="-37401797#0" to="-379581070#1"/>
    <trip id="20" type="veh_passenger" depart="49.84" departLane="best" from="-378331050#4" to="-379724329#4"/>
    <trip id="21" type="veh_passenger" depart="52.33" departLane="best" departSpeed="max" from="379555980" to="-416467607#1"/>
    <trip id="22" type="veh_passenger" depart="54.82" departLane="best" from="-448204368#8" to="-379578138#3"/>
    <trip id="24" type="veh_passenger" depart="59.81" departLane="best" from="379555999" to="378331073#1"/>
    <trip id="25" type="veh_passenger" depart="62.30" departLane="best" departSpeed="max" from="-379567137" to="379584829"/>
    <trip id="26" type="veh_passenger" depart="64.79" departLane="best" departSpeed="max" from="-379558047" to="-448204368#5"/>
    <trip id="27" type="veh_passenger" depart="67.28" departLane="best" from="900620146#5" to="379556012#2"/>
    <trip id="28" type="veh_passenger" depart="69.77" departLane="best" departSpeed="max" from="263590645#0" to="379574231"/>
    <trip id="30" type="veh_passenger" depart="74.76" departLane="best" from="-379581059#1" to="700433858#6"/>
    <trip id="31" type="veh_passenger" depart="77.25" departLane="best" from="416466757" to="-416211541#0"/>
    <trip id="32" type="veh_passenger" depart="79.74" departLane="best" from="379556012#2" to="-518705243#5"/>
    <trip id="33" type="veh_passenger" depart="82.23" departLane="best" from="518705245#4" to="176922094#20"/>
    <trip id="34" type="veh_passenger" depart="84.73" departLane="best" departSpeed="max" from="-379724142" to="-379584853#0"/>
    <trip id="35" type="veh_passenger" depart="87.22" departLane="best" departSpeed="max" from="318882327" to="-379598625#0"/>
    <trip id="36" type="veh_passenger" depart="89.71" departLane="best" from="37401829#5" to="518705249#0"/>
    <trip id="37" type="veh_passenger" depart="92.20" departLane="best" from="-518705249#7" to="-379578147"/>
    <trip id="38" type="veh_passenger" depart="94.69" departLane="best" from="913943264" to="183895346#8"/>
    <trip id="39" type="veh_passenger" depart="97.18" departLane="best" from="-37402625#5" to="-218684410"/>
    <trip id="40" type="veh_passenger" depart="99.68" departLane="best" from="-378331060#4" to="379555998#1"/>
    <trip id="41" type="veh_passenger" depart="102.17" departLane="best" departSpeed="max" from="392752139" to="-540235859#0"/>
    <trip id="42" type="veh_passenger" depart="104.66" departLane="best" departSpeed="max" from="-26269734#2" to="-448204368#7"/>
    <trip id="43" type="veh_passenger" depart="107.15" departLane="best" from="900620148#1" to="218975372#6"/>
    <trip id="44" type="veh_passenger" depart="109.64" departLane="best" from="810622960#1" to="416504293#2"/>
    <trip id="45" type="veh_passenger" depart="112.14" departLane="best" from="-176922094#21" to="379581070#2"/>
    <trip id="46" type="veh_passenger" depart="114.63" departLane="best" from="379567128" to="26268518#2"/>
    <trip id="47" type="veh_passenger" depart="117.12" departLane="best" from="-379724289#1" to="379556014#2"/>
    <trip id="48" type="veh_passenger" depart="119.61" departLane="best" departSpeed="max" from="-378331061#3" to="-702362023#3"/>
    <trip id="49" type="veh_passenger" depart="122.10" departLane="best" from="176922094#10" to="702362023#3"/>
    <trip id="50" type="veh_passenger" depart="124.60" departLane="best" from="416461494#5" to="-379598625#1"/>
    <trip id="51" type="veh_passenger" depart="127.09" departLane="best" from="183521143#1" to="-379558043#1"/>
    <trip id="52" type="veh_passenger" depart="129.58" departLane="best" from="518705244#0" to="448204368#3"/>
    <trip id="53" type="veh_passenger" depart="132.07" departLane="best" from="-395577218" to="379556010"/>
    <trip id="54" type="veh_passenger" depart="134.56" departLane="best" from="378331059#1" to="-379556008"/>
    <trip id="55" type="veh_passenger" depart="137.06" departLane="best" departSpeed="max" from="379598581" to="26269734#1"/>
    <trip id="56" type="veh_passenger" depart="139.55" departLane="best" departSpeed="max" from="379724289#0" to="227625253#2"/>
    <trip id="57" type="veh_passenger" depart="142.04" departLane="best" from="-172670186#2" to="-416453502#0"/>
    <trip id="58" type="veh_passenger" depart="144.53" departLane="best" from="-183521081#2" to="689327905#6"/>
    <trip id="59" type="veh_passenger" depart="147.02" departLane="best" from="416467609" to="416456942#0"/>
    <trip id="60" type="veh_passenger" depart="149.51" departLane="best" from="-416211543#1" to="-227625257"/>
    <trip id="61" type="veh_passenger" depart="152.01" departLane="best" from="416467608#0" to="700433858#9"/>
    <trip id="62" type="veh_passenger" depart="154.50" departLane="best" from="-37401829#5" to="183521163#5"/>
    <trip id="63" type="veh_passenger" depart="156.99" departLane="best" departSpeed="max" from="-332080691#3" to="379598648"/>
    <trip id="64" type="veh_passenger" depart="159.48" departLane="best" departSpeed="max" from="379598585" to="-379555974#0"/>
    <trip id="65" type="veh_passenger" depart="161.97" departLane="best" departSpeed="max" from="183521129#0" to="332080691#3"/>
    <trip id="66" type="veh_passenger" depart="164.47" departLane="best" departSpeed="max" from="-379724142" to="448204368#4"/>
    <trip id="67" type="veh_passenger" depart="166.96" departLane="best" departSpeed="max" from="-700433858#9" to="-379578139#2"/>
    <trip id="68" type="veh_passenger" depart="169.45" departLane="best" from="-379578138#2" to="-416206251#0"/>
    <trip id="69" type="veh_passenger" depart="171.94" departLane="best" from="900620148#1" to="379557990#2"/>
    <trip id="71" type="veh_passenger" depart="176.93" departLane="best" from="-378331073#0" to="-379578150"/>
    <trip id="72" type="veh_passenger" depart="179.42" departLane="best" from="-416456957#1" to="378331050#4"/>
    <trip id="73" type="veh_passenger" depart="181.91" departLane="best" from="-379584831#3" to="-379578147"/>
    <trip id="74" type="veh_passenger" depart="184.40" departLane="best" departSpeed="max" from="-332080691#3" to="379556003#2"/>
    <trip id="75" type="veh_passenger" depart="186.89" departLane="best" from="-379584831#0" to="518705249#4"/>
    <trip id="77" type="veh_passenger" depart="191.88" departLane="best" from="-379584851#1" to="379567156#0"/>
    <trip id="78" type="veh_passenger" depart="194.37" departLane="best" departSpeed="max" from="-379581064#2" to="-379555977#3"/>
    <trip id="79" type="veh_passenger" depart="196.86" departLane="best" from="540235859#1" to="37401829#12"/>
    <trip id="80" type="veh_passenger" depart="199.35" departLane="best" from="-378331044#2" to="-700433858#7"/>
    <trip id="81" type="veh_passenger" depart="201.85" departLane="best" departSpeed="max" from="-700433858#9" to="183521081#0"/>
    <trip id="82" type="veh_passenger" depart="204.34" departLane="best" departSpeed="max" from="379578147" to="379567156#9"/>
    <trip id="83" type="veh_passenger" depart="206.83" departLane="best" from="900620146#2" to="-378331046#1"/>
    <trip id="84" type="veh_passenger" depart="209.32" departLane="best" from="-518705249#9" to="-416456940#0"/>
    <trip id="85" type="veh_passenger" depart="211.81" departLane="best" from="-379574243#0" to="172670186#2"/>
    <trip id="86" type="veh_passenger" depart="214.30" departLane="best" departSpeed="max" from="-700433858#9" to="-392563821#0"/>
    <trip id="87" type="veh_passenger" depart="216.80" departLane="best" departSpeed="max" from="-379584863#1" to="689327905#2"/>
    <trip id="88" type="veh_passenger" depart="219.29" departLane="best" departSpeed="max" from="172670186#0" to="416504293#2"/>
    <trip id="89" type="veh_passenger" depart="221.78" departLane="best" departSpeed="max" from="26329557#0" to="-218769245#3"/>
    <trip id="90" type="veh_passenger" depart="224.27" departLane="best" from="954536931#0" to="416456947#0"/>
    <trip id="91" type="veh_passenger" depart="226.76" departLane="best" from="794254763#0" to="689327905#3"/>
    <trip id="92" type="veh_passenger" depart="229.26" departLane="best" from="416453515#3" to="-379557990#0"/>
    <trip id="93" type="veh_passenger" depart="231.75" departLane="best" from="183521129#3" to="-379578139#6"/>
    <trip id="94" type="veh_passenger" depart="234.24" departLane="best" from="-518705249#8" to="-227626347#1"/>
    <trip id="95" type="veh_passenger" depart="236.73" departLane="best" from="-518705243#3" to="900620146#3"/>
    <trip id="96" type="veh_passenger" depart="239.22" departLane="best" departSpeed="max" from="-379724142" to="393310533#2"/>
    <trip id="97" type="veh_passenger" depart="241.72" departLane="best" from="176922094#12" to="-540235860"/>
    <trip id="99" type="veh_passenger" depart="246.70" departLane="best" departSpeed="max" from="263590645#0" to="379581065#1"/>
    <trip id="100" type="veh_passenger" depart="249.19" departLane="best" from="-379556022#1" to="-394282840#4"/>
    <trip id="101" type="veh_passenger" depart="251.68" departLane="best" from="794254763#0" to="378331040#2"/>
    <trip id="102" type="veh_passenger" depart="254.18" departLane="best" from="227625253#2" to="379584860"/>
    <trip id="103" type="veh_passenger" depart="256.67" departLane="best" from="-227625255#2" to="378331044#2"/>
    <trip id="104" type="veh_passenger" depart="259.16" departLane="best" departSpeed="max" from="183521166#0" to="416467607#1"/>
    <trip id="105" type="veh_passenger" depart="261.65" departLane="best" from="-37401797#1" to="-379567152#0"/>
    <trip id="106" type="veh_passenger" depart="264.14" departLane="best" from="378331044#0" to="379567157#3"/>
    <trip id="107" type="veh_passenger" depart="266.63" departLane="best" departSpeed="max" from="-379584839" to="-378331066"/>
    <trip id="108" type="veh_passenger" depart="269.13" departLane="best" from="448204368#4" to="-379584851#1"/>
    <trip id="109" type="veh_passenger" depart="271.62" departLane="best" from="378331043#5" to="379555982"/>
    <trip id="110" type="veh_passenger" depart="274.11" departLane="best" from="-700433858#7" to="378331044#0"/>
    <trip id="112" type="veh_passenger" depart="279.09" departLane="best" from="-379578139#2" to="379581064#2"/>
    <trip id="113" type="veh_passenger" depart="281.59" departLane="best" departSpeed="max" from="-379584852" to="-518705243#5"/>
    <trip id="114" type="veh_passenger" depart="284.08" departLane="best" departSpeed="max" from="379558014#0" to="-394382781#1"/>
    <trip id="115" type="veh_passenger" depart="286.57" departLane="best" from="-416453510#2" to="379584863#1"/>
    <trip id="116" type="veh_passenger" depart="289.06" departLane="best" departSpeed="max" from="-337111078#2" to="176922094#2"/>
    <trip id="118" type="veh_passenger" depart="294.05" departLane="best" departSpeed="max" from="-337111078#2" to="-379578139#5"/>
    <trip id="120" type="veh_passenger" depart="299.03" departLane="best" departSpeed="max" from="416504291#0" to="469144897#4"/>
    <trip id="121" type="veh_passenger" depart="301.52" departLane="best" from="-448204368#8" to="-379556015#2"/>
    <trip id="122" type="veh_passenger" depart="304.01" departLane="best" departSpeed="max" from="416212024#0" to="379578138#3"/>
    <trip id="123" type="veh_passenger" depart="306.51" departLane="best" from="378331060#1" to="900620146#4"/>
    <trip id="124" type="veh_passenger" depart="309.00" departLane="best" departSpeed="max" from="379556012#0" to="-176922094#0"/>
    <trip id="125" type="veh_passenger" depart="311.49" departLane="best" from="395577217#5" to="-394282841#1"/>
    <trip id="126" type="veh_passenger" depart="313.98" departLane="best" from="379556023#0" to="700433858#2"/>
    <trip id="127" type="veh_passenger" depart="316.47" departLane="best" departSpeed="max" from="-379555987" to="-378331061#1"/>
    <trip id="128" type="veh_passenger" depart="318.97" departLane="best" from="-378331059#4" to="337111078#2"/>
    <trip id="129" type="veh_passenger" depart="321.46" departLane="best" from="379578138#6" to="-379574252#0"/>
    <trip id="130" type="veh_passenger" depart="323.95" departLane="best" departSpeed="max" from="379555980" to="-379598639#0"/>
    <trip id="131" type="veh_passenger" depart="326.44" departLane="best" from="183521129#5" to="518705249#4"/>
    <trip id="132" type="veh_passenger" depart="328.93" departLane="best" departSpeed="max" from="416453514" to="-378331040#1"/>
    <trip id="133" type="veh_passenger" depart="331.42" departLane="best" departSpeed="max" from="-700433858#9" to="-379724329#1"/>
    <trip id="134" type="veh_passenger" depart="333.92" departLane="best" from="-176922094#10" to="379724356#1"/>
    <trip id="135" type="veh_passenger" depart="336.41" departLane="best" departSpeed="max" from="379555986" to="-379598625#0"/>
    <trip id="136" type="veh_passenger" depart="338.90" departLane="best" from="379581070#1" to="332080691#3"/>
    <trip id="137" type="veh_passenger" depart="341.39" departLane="best" departSpeed="max" from="-702339101" to="-176922094#1"/>
    <trip id="138" type="veh_passenger" depart="343.88" departLane="best" from="-337111082#0" to="469147010#3"/>
    <trip id="139" type="veh_passenger" depart="346.38" departLane="best" from="518705243#1" to="330258690#0"/>
    <trip id="140" type="veh_passenger" depart="348.87" departLane="best" departSpeed="max" from="416212024#0" to="378331043#3"/>
    <trip id="141" type="veh_passenger" depart="351.36" departLane="best" from="-379556012#1" to="-378331080#0"/>
    <trip id="142" type="veh_passenger" depart="353.85" departLane="best" from="-416212024#1" to="518705249#10"/>
    <trip id="143" type="veh_passenger" depart="356.34" departLane="best" from="393310533#1" to="416504293#2"/>
    <trip id="144" type="veh_passenger" depart="358.84" departLane="best" from="469144897#1" to="-379578138#5"/>
    <trip id="145" type="veh_passenger" depart="361.33" departLane="best" departSpeed="max" from="-379584863#1" to="-378331050#0"/>
    <trip id="146" type="veh_passenger" depart="363.82" departLane="best" departSpeed="max" from="379724289#0" to="518705243#0"/>
    <trip id="147" type="veh_passenger" depart="366.31" departLane="best" departSpeed="max" from="-518705250#4" to="379555982"/>
    <trip id="148" type="veh_passenger" depart="368.80" departLane="best" from="-379556022#1" to="689327905#6"/>
    <trip id="149" type="veh_passenger" depart="371.30" departLane="best" from="416456955#2" to="842103897#3"/>
    <trip id="150" type="veh_passenger" depart="373.79" departLane="best" from="394282840#8" to="469147007"/>
    <trip id="151" type="veh_passenger" depart="376.28" departLane="best" from="-183521126#6" to="379584839"/>
    <trip id="153" type="veh_passenger" depart="381.26" departLane="best" from="393642751#1" to="416504294#2"/>
    <trip id="154" type="veh_passenger" depart="383.75" departLane="best" from="394282840#8" to="-379598681#0"/>
    <trip id="156" type="veh_passenger" depart="388.74" departLane="best" departSpeed="max" from="416461494#0" to="416504291#1"/>
    <trip id="157" type="veh_passenger" depart="391.23" departLane="best" departSpeed="max" from="-379581071" to="416453503#1"/>
    <trip id="158" type="veh_passenger" depart="393.72" departLane="best" from="393310533#0" to="-379581059#1"/>
    <trip id="159" type="veh_passenger" depart="396.21" departLane="best" from="-183521126#3" to="-379567160#3"/>
    <trip id="160" type="veh_passenger" depart="398.71" departLane="best" from="-416456947#1" to="416504294#2"/>
    <trip id="161" type="veh_passenger" depart="401.20" departLane="best" from="788674854" to="-392563822"/>
    <trip id="162" type="veh_passenger" depart="403.69" departLane="best" departSpeed="max" from="379555992" to="-518705243#8"/>
    <trip id="163" type="veh_passenger" depart="406.18" departLane="best" from="900620146#0" to="26268518#1"/>
    <trip id="164" type="veh_passenger" depart="408.67" departLane="best" from="689327905#2" to="-378331061#1"/>
    <trip id="165" type="veh_passenger" depart="411.17" departLane="best" from="810622960#0" to="-379558043#1"/>
    <trip id="166" type="veh_passenger" depart="413.66" departLane="best" from="702362023#3" to="-379598648"/>
    <trip id="167" type="veh_passenger" depart="416.15" departLane="best" departSpeed="max" from="379578147" to="-416211541#0"/>
    <trip id="168" type="veh_passenger" depart="418.64" departLane="best" departSpeed="max" from="378331054" to="183895347#1"/>
    <trip id="169" type="veh_passenger" depart="421.13" departLane="best" from="-518705243#7" to="37402625#2"/>
    <trip id="170" type="veh_passenger" depart="423.63" departLane="best" from="-379598577#4" to="379578142#1"/>
    <trip id="171" type="veh_passenger" depart="426.12" departLane="best" from="-172672023#1" to="689327905#3"/>
    <trip id="172" type="veh_passenger" depart="428.61" departLane="best" from="218769245#7" to="379581070#0"/>
    <trip id="173" type="veh_passenger" depart="431.10" departLane="best" departSpeed="max" from="379581073#0" to="379567156#3"/>
    <trip id="175" type="veh_passenger" depart="436.08" departLane="best" from="379557986#1" to="-416453513#0"/>
    <trip id="176" type="veh_passenger" depart="438.58" departLane="best" from="-416453507#1" to="416457251#1"/>
    <trip id="177" type="veh_passenger" depart="441.07" departLane="best" from="-416453502#1" to="-518705249#3"/>
    <trip id="178" type="veh_passenger" depart="443.56" departLane="best" from="-518705249#9" to="-394282840#1"/>
    <trip id="180" type="veh_passenger" depart="448.54" departLane="best" from="689327905#2" to="379567160#1"/>
    <trip id="181" type="veh_passenger" depart="451.04" departLane="best" from="518705243#0" to="379555974#1"/>
    <trip id="182" type="veh_passenger" depart="453.53" departLane="best" from="-395577822#0" to="330258691"/>
    <trip id="183" type="veh_passenger" depart="456.02" departLane="best" from="-172670186#1" to="-393310535#0"/>
    <trip id="184" type="veh_passenger" depart="458.51" departLane="best" departSpeed="max" from="379556012#0" to="176922094#9"/>
    <trip id="185" type="veh_passenger" depart="461.00" departLane="best" from="-954536931#0" to="-379578139#6"/>
    <trip id="186" type="veh_passenger" depart="463.50" departLane="best" departSpeed="max" from="183521129#0" to="518705249#11"/>
    <trip id="187" type="veh_passenger" depart="465.99" departLane="best" from="393310533#1" to="-379558007#4"/>
    <trip id="189" type="veh_passenger" depart="470.97" departLane="best" departSpeed="max" from="379555979" to="-416453525"/>
    <trip id="190" type="veh_passenger" depart="473.46" departLane="best" from="395577217#9" to="379584863#1"/>
    <trip id="191" type="veh_passenger" depart="475.96" departLane="best" from="379558014#1" to="-379578150"/>
    <trip id="194" type="veh_passenger" depart="483.43" departLane="best" departSpeed="max" from="416453525" to="-332080691#0"/>
    <trip id="195" type="veh_passenger" depart="485.92" departLane="best" from="-700433858#1" to="379556002"/>
    <trip id="196" type="veh_passenger" depart="488.42" departLane="best" departSpeed="max" from="183521143#0" to="-379584840#0"/>
    <trip id="197" type="veh_passenger" depart="490.91" departLane="best" from="379556014#2" to="-176922094#0"/>
    <trip id="198" type="veh_passenger" depart="493.40" departLane="best" from="379584832#2" to="379724329#2"/>
    <trip id="199" type="veh_passenger" depart="495.89" departLane="best" from="-378331059#3" to="-700433858#0"/>
    <trip id="200" type="veh_passenger" depart="498.38" departLane="best" from="-379567155#0" to="788674854"/>
    <trip id="201" type="veh_passenger" depart="500.87" departLane="best" from="183895339#0" to="-218769245#2"/>
    <trip id="202" type="veh_passenger" depart="503.37" departLane="best" departSpeed="max" from="-379584863#1" to="416457251#1"/>
    <trip id="203" type="veh_passenger" depart="505.86" departLane="best" from="176922094#13" to="395577217#3"/>
    <trip id="204" type="veh_passenger" depart="508.35" departLane="best" from="379557990#2" to="900620146#4"/>
    <trip id="205" type="veh_passenger" depart="510.84" departLane="best" from="378331044#2" to="702339101"/>
    <trip id="206" type="veh_passenger" depart="513.33" departLane="best" from="448204368#5" to="378331078#1"/>
    <trip id="207" type="veh_passenger" depart="515.83" departLane="best" from="379578139#2" to="183895344#5"/>
    <trip id="208" type="veh_passenger" depart="518.32" departLane="best" departSpeed="max" from="416211543#0" to="330258691"/>
    <trip id="209" type="veh_passenger" depart="520.81" departLane="best" departSpeed="max" from="183521129#0" to="-379598615"/>
    <trip id="210" type="veh_passenger" depart="523.30" departLane="best" departSpeed="max" from="-379584860" to="379556010"/>
    <trip id="211" type="veh_passenger" depart="525.79" departLane="best" departSpeed="max" from="379598585" to="218684410"/>
    <trip id="212" type="veh_passenger" depart="528.29" departLane="best" departSpeed="max" from="379555974#0" to="-379724312"/>
    <trip id="213" type="veh_passenger" depart="530.78" departLane="best" from="-37400668#1" to="-393310533#5"/>
    <trip id="215" type="veh_passenger" depart="535.76" departLane="best" from="218975372#1" to="-379555981"/>
    <trip id="216" type="veh_passenger" depart="538.25" departLane="best" from="-379584831#5" to="379574252#1"/>
    <trip id="217" type="veh_passenger" depart="540.75" departLane="best" from="379574246#0" to="-263590506#2"/>
    <trip id="218" type="veh_passenger" depart="543.24" departLane="best" from="-521919709#1" to="26329557#2"/>
    <trip id="219" type="veh_passenger" depart="545.73" departLane="best" from="-700433858#3" to="-379578137#1"/>
    <trip id="220" type="veh_passenger" depart="548.22" departLane="best" from="-700433858#8" to="518705249#4"/>
    <trip id="221" type="veh_passenger" depart="550.71" departLane="best" from="37401829#5" to="379574256#1"/>
    <trip id="222" type="veh_passenger" depart="553.20" departLane="best" from="416456942#5" to="379603826#3"/>
    <trip id="223" type="veh_passenger" depart="555.70" departLane="best" from="-518705243#4" to="-176922094#0"/>
    <trip id="225" type="veh_passenger" depart="560.68" departLane="best" from="416456941#0" to="702362023#3"/>
    <trip id="226" type="veh_passenger" depart="563.17" departLane="best" from="-700433858#6" to="379584860"/>
    <trip id="227" type="veh_passenger" depart="565.66" departLane="best" departSpeed="max" from="-379581071" to="-379578147"/>
    <trip id="228" type="veh_passenger" depart="568.16" departLane="best" from="-416456956#4" to="379567160#5"/>
    <trip id="229" type="veh_passenger" depart="570.65" departLane="best" from="-518705250#2" to="-379557990#0"/>
    <trip id="230" type="veh_passenger" depart="573.14" departLane="best" from="183272534#1" to="-378331080#0"/>
    <trip id="231" type="veh_passenger" depart="575.63" departLane="best" from="378331077#1" to="-183521126#0"/>
    <trip id="232" type="veh_passenger" depart="578.12" departLane="best" from="-518705249#2" to="37400668#3"/>
    <trip id="233" type="veh_passenger" depart="580.62" departLane="best" from="-183521163#4" to="379556015#3"/>
    <trip id="234" type="veh_passenger" depart="583.11" departLane="best" departSpeed="max" from="-379555987" to="176922094#4"/>
    <trip id="235" type="veh_passenger" depart="585.60" departLane="best" from="-218769245#8" to="-448204368#5"/>
    <trip id="236" type="veh_passenger" depart="588.09" departLane="best" from="-379581060#0" to="-416453507#0"/>
    <trip id="237" type="veh_passenger" depart="590.58" departLane="best" from="379598577#2" to="-448204368#5"/>
    <trip id="238" type="veh_passenger" depart="593.08" departLane="best" from="379584832#4" to="416456942#1"/>
    <trip id="239" type="veh_passenger" depart="595.57" departLane="best" departSpeed="max" from="-379589779#1" to="-37401816#0"/>
    <trip id="240" type="veh_passenger" depart="598.06" departLane="best" from="-183521081#2" to="26269734#1"/>
    <trip id="241" type="veh_passenger" depart="600.55" departLane="best" from="954536931#1" to="-416456954"/>
    <trip id="242" type="veh_passenger" depart="603.04" departLane="best" from="379556003#0" to="393310531#0"/>
    <trip id="244" type="veh_passenger" depart="608.03" departLane="best" from="689327907#2" to="-379574238"/>
    <trip id="245" type="veh_passenger" depart="610.52" departLane="best" departSpeed="max" from="-183521081#3" to="-379556004#0"/>
    <trip id="246" type="veh_passenger" depart="613.01" departLane="best" from="-378331079#2" to="379567156#1"/>
    <trip id="247" type="veh_passenger" depart="615.50" departLane="best" from="330258690#1" to="-379578144"/>
    <trip id="248" type="veh_passenger" depart="617.99" departLane="best" from="379567162#0" to="379724142"/>
    <trip id="249" type="veh_passenger" depart="620.49" departLane="best" departSpeed="max" from="-379567127" to="378331069#1"/>
    <trip id="250" type="veh_passenger" depart="622.98" departLane="best" from="379584831#7" to="-378331060#3"/>
    <trip id="251" type="veh_passenger" depart="625.47" departLane="best" from="-378331059#6" to="-183521081#1"/>
    <trip id="252" type="veh_passenger" depart="627.96" departLane="best" departSpeed="max" from="-416453506#1" to="379567160#1"/>
    <trip id="253" type="veh_passenger" depart="630.45" departLane="best" from="700433858#6" to="-518705243#6"/>
    <trip id="254" type="veh_passenger" depart="632.95" departLane="best" from="379578137#5" to="-337111082#0"/>
    <trip id="255" type="veh_passenger" depart="635.44" departLane="best" from="379567156#4" to="379555998#0"/>
    <trip id="256" type="veh_passenger" depart="637.93" departLane="best" from="-378331051#0" to="379724356#1"/>
    <trip id="257" type="veh_passenger" depart="640.42" departLane="best" departSpeed="max" from="416453525" to="378331061#3"/>
    <trip id="258" type="veh_passenger" depart="642.91" departLane="best" from="-378331073#0" to="900620146#2"/>
    <trip id="259" type="veh_passenger" depart="645.41" departLane="best" departSpeed="max" from="379724312" to="-416456949"/>
    <trip id="260" type="veh_passenger" depart="647.90" departLane="best" from="-702362022#1" to="-416504295#0"/>
    <trip id="261" type="veh_passenger" depart="650.39" departLane="best" from="183521170#0" to="-416456942#0"/>
    <trip id="262" type="veh_passenger" depart="652.88" departLane="best" departSpeed="max" from="379555980" to="416455208"/>
    <trip id="263" type="veh_passenger" depart="655.37" departLane="best" from="379574248#0" to="-702362024#0"/>
    <trip id="264" type="veh_passenger" depart="657.87" departLane="best" from="379581050" to="82091418#1"/>