<?xml version="1.0" encoding="UTF-8"?>

<!-- generated on 09/27/21 19:54:23 by Eclipse SUMO polyconvert Version 1.7.0
<configuration xmlns:xsi="http://www.w3.org/2001/XMLSchema-instance" xsi:noNamespaceSchemaLocation="http://sumo.dlr.de/xsd/polyconvertConfiguration.xsd">

    <input>
        <net-file value="osm.net.xml"/>
        <osm-files value="osm_bbox.osm.xml"/>
        <osm.keep-full-type value="true"/>
        <type-file value="C:\Program%20Files%20(x86)\Eclipse\Sumo\data\typemap\osmPolyconvert.typ.xml"/>
    </input>

    <output>
        <output-file value="osm.poly.xml"/>
    </output>

    <processing>
        <poi-layer-offset value="5"/>
    </processing>

    <report>
        <verbose value="true"/>
    </report>

</configuration>
-->

<additional xmlns:xsi="http://www.w3.org/2001/XMLSchema-instance" xsi:noNamespaceSchemaLocation="http://sumo.dlr.de/xsd/additional_file.xsd">
    <location netOffset="-314481.54,-4156025.77" convBoundary="0.00,0.00,17047.82,9512.82" origBoundary="126.899294,37.534097,127.091107,37.620241" projParameter="+proj=utm +zone=52 +ellps=WGS84 +datum=WGS84 +units=m +no_defs"/>

    <poly id="172669887" type="amenity.university" color="237,199,199" fill="1" layer="-1.00" shape="11593.843419,5779.229980 11645.038786,5838.312420 11659.751354,5825.870462 11609.916998,5765.971212 11593.843419,5779.229980"/>
    <poly id="172669887#1" type="building.university" color="255,230,230" fill="1" layer="-1.00" shape="11593.843419,5779.229980 11645.038786,5838.312420 11659.751354,5825.870462 11609.916998,5765.971212 11593.843419,5779.229980"/>
    <poly id="204029920" type="waterway.stream" color="181,209,209" fill="0" layer="-4.00" shape="10607.860196,5988.603596 10668.818252,5924.319000 10701.780358,5895.127371 10714.340432,5874.514248 10731.034686,5840.903436 10747.367974,5798.963373 10765.345173,5732.743971 10785.205530,5653.585505 10820.176901,5494.536302 10857.588264,5360.235717 10928.910275,5179.873546 11004.530249,5010.467295 11028.943028,4966.060073 11058.737568,4940.178346 11089.099398,4930.336892 11197.560931,4904.466504 11259.509530,4865.687477 11328.515627,4787.263317 11350.628619,4745.980475 11371.268811,4521.362306 11380.786120,4319.868102 11365.836684,4183.539841 11352.277011,4069.650838 11338.906309,3987.917460 11334.344041,3960.005458"/>
    <poly id="26253960" type="amenity.university" color="237,199,199" fill="1" layer="-1.00" shape="11654.222024,6253.819190 11668.328571,6256.742605 11686.506282,6253.297493 11704.794677,6244.177487 11719.478688,6232.091422 11730.457683,6225.300535 11749.694175,6224.741832 11768.961609,6226.080795 11794.669218,6235.033323 11856.152122,6256.624123 11808.557491,6386.026678 11856.400948,6378.962985 11892.162272,6269.091033 11904.891513,6273.320307 11925.425382,6280.305706 11937.889700,6284.540578 11952.898772,6289.654664 12016.298229,6337.016262 12067.169739,6375.015913 12079.306731,6375.860935 12094.469667,6376.520551 12118.696330,6373.416061 12127.874020,6364.964941 12122.300785,6353.170181 12119.060266,6301.296504 12136.349660,6300.146665 12136.413245,6293.473649 12132.768855,6247.203315 12131.538115,6154.158501 12106.094911,6076.761907 12073.823411,6029.791696 11949.876492,5885.853032 11827.790634,5744.086116 11816.536258,5731.022930 11803.271053,5731.189867 11798.698897,5731.374480 11794.264304,5731.378598 11794.326193,5737.283027 11792.478396,5739.319926 11788.655429,5740.687753 11774.454243,5740.874351 11774.108308,5730.269053 11723.647673,5728.973317 11667.020531,5727.662885 11657.760840,5739.801744 11622.520480,5741.839677 11618.964726,5742.047474 11612.560208,5758.899930 11604.410812,5755.740583 11597.919817,5764.258012 11581.894717,5757.089936 11574.736036,5774.624309 11622.947439,5832.525920 11620.682077,5859.293558 11620.182637,5876.754815 11628.724389,5893.571278 11632.742056,5901.068991 11631.874303,5918.660084 11616.529777,5933.812906 11607.135252,6003.091561 11618.416995,6051.987948 11628.912275,6074.347232 11613.405088,6105.311331 11631.174565,6132.080526 11636.493648,6128.350019 11644.653614,6132.030904 11653.818196,6139.387361 11660.247808,6144.803008 11674.557020,6158.223745 11674.878627,6173.558591 11672.859352,6178.785110 11660.610295,6193.673143 11666.737699,6203.213606 11670.281306,6214.229191 11676.215999,6214.582067 11681.738117,6218.007478 11687.309564,6223.785271 11690.729574,6228.908821 11684.564280,6239.883799 11673.846572,6248.600845 11658.144169,6245.400065 11653.905140,6235.342656 11654.482802,6229.191681 11659.777306,6221.765065 11665.578409,6215.748756 11661.319596,6204.748173 11655.484815,6197.788111 11649.003235,6193.683478 11641.518467,6187.235379 11629.569919,6170.967722 11625.841343,6173.876698 11616.653502,6153.621385 11601.055237,6150.762649 11574.991521,6155.594526 11553.570430,6166.134883 11556.703127,6171.453131 11540.957899,6185.582148 11531.528586,6173.191507 11516.878530,6178.472275 11460.848985,6189.917051 11445.030578,6197.187365 11408.457391,6219.369373 11383.360963,6215.988993 11368.043282,6184.439739 11370.231568,6166.243581 11369.338786,6155.283420 11357.448542,6150.648778 11352.015103,6108.989761 11383.361242,5991.870344 11411.566737,5969.542097 11436.326307,5945.909791 11452.068493,5925.730605 11457.537632,5915.680357 11460.409447,5898.468986 11471.359636,5843.166937 11470.300500,5799.451171 11464.800841,5766.396802 11465.205499,5750.746976 11402.978431,5699.423720 11403.506553,5686.713063 11415.559113,5686.848483 11420.458193,5673.624200 11443.207105,5671.992008 11443.128380,5668.663356 11429.967233,5662.012675 11456.353264,5615.655873 11475.492319,5612.911759 11476.607629,5432.474737 11476.696697,5419.462487 11470.258824,5419.997263 11455.370250,5413.138564 11449.921549,5407.769055 11448.045777,5394.587133 11424.264747,5395.486071 11419.531640,5371.185432 11405.625158,5326.118713 11404.354357,5315.666044 11406.025435,5311.523579 11416.953076,5298.450249 11420.259457,5298.558440 11418.551213,5294.620147 11417.094999,5293.007774 11399.018167,5308.506938 11380.695700,5291.274418 11365.812034,5274.569161 11325.390665,5271.888125 11291.432482,5253.896382 11280.474636,5209.189714 11261.767125,5185.848861 11238.610240,5194.195068 11214.376130,5224.421902 11217.058899,5261.265311 11215.509289,5290.093944 11184.834006,5316.482130 11148.556082,5320.941617 11120.268608,5321.392237 11100.211498,5326.720787 11084.957668,5384.411833 11061.020777,5414.854955 11030.759280,5548.593247 11031.711838,5593.854358 11088.104753,5623.017954 11094.297651,5688.528117 11120.611069,5703.482703 11169.455780,5731.251440 11179.924451,5792.597636 11196.742202,5845.007211 11231.062286,5909.304368 11232.483496,5932.364642 11216.592691,5985.783907 11205.645449,5999.124421 11172.455682,6014.187141 11159.351077,6053.049991 11112.695690,6113.299949 11105.598797,6126.570708 11105.860284,6138.998381 11111.235751,6153.072419 11110.115104,6167.405250 11117.585887,6178.204801 11069.948101,6199.699759 11053.000070,6226.732289 11047.435622,6257.821354 11050.911685,6307.136786 11051.525399,6329.159466 11052.342315,6358.737689 11057.239342,6405.059235 11072.216126,6434.639158 11123.431605,6508.937551 11189.163909,6576.325736 11191.004429,6592.017213 11251.112828,6631.027736 11275.735178,6627.879102 11294.964124,6611.456057 11304.926929,6587.457100 11316.321986,6536.619041 11334.775629,6486.232124 11353.380531,6461.108044 11377.407843,6450.634463 11400.329359,6452.695048 11425.499904,6449.124637 11441.076112,6437.496637 11463.694582,6391.474113 11480.805692,6376.372648 11497.797672,6374.106506 11513.751327,6359.828690 11522.595400,6327.094836 11533.278360,6316.313518 11558.459021,6290.896523 11577.057206,6272.134038 11599.795569,6257.447611 11636.354723,6250.164316 11654.222024,6253.819190"/>
    <poly id="26628700" type="amenity.library" color="237,199,199" fill="1" layer="-1.00" shape="11240.229422,5485.585120 11220.862993,5519.128796 11320.975606,5576.426340 11341.024228,5541.702971 11320.189992,5529.785251 11311.086257,5545.551266 11296.180438,5537.028065 11297.629372,5534.510988 11272.466807,5520.097799 11270.420972,5523.637619 11249.148295,5511.462859 11258.166920,5495.853976 11240.229422,5485.585120"/>
    <poly id="26628700#1" type="building.yes" color="255,230,230" fill="1" layer="-1.00" shape="11240.229422,5485.585120 11220.862993,5519.128796 11320.975606,5576.426340 11341.024228,5541.702971 11320.189992,5529.785251 11311.086257,5545.551266 11296.180438,5537.028065 11297.629372,5534.510988 11272.466807,5520.097799 11270.420972,5523.637619 11249.148295,5511.462859 11258.166920,5495.853976 11240.229422,5485.585120"/>
    <poly id="26628701" type="building.university" color="255,230,230" fill="1" layer="-1.00" shape="11326.732847,5505.658478 11326.193021,5508.977923 11326.113542,5512.343203 11326.483947,5515.676828 11327.303536,5518.945510 11328.544186,5522.072135 11329.619770,5524.069923 11330.870096,5525.975232 11332.285634,5527.754959 11333.857322,5529.398193 11335.576094,5530.894024 11337.424058,5532.231727 11339.383087,5533.389481 11341.435752,5534.378753 11343.581355,5535.166254 11345.775977,5535.764009 11348.028449,5536.171832 11350.302749,5536.357177 11352.581917,5536.353703 11354.856424,5536.128306 11357.091646,5535.715019 11359.287119,5535.091647 11361.425647,5534.280755 11363.471676,5533.271989 11365.416843,5532.087725 11367.252549,5530.739245 11368.952304,5529.227107 11370.507511,5527.562590 11371.909805,5525.768074 11373.141759,5523.855025 11374.194775,5521.834724 11375.060722,5519.740645 11375.739367,5517.561692 11376.205150,5515.342807 11376.532366,5511.994528 11376.408767,5508.633516 11375.826918,5505.326533 11374.814244,5502.117407 11373.381205,5499.083626 11371.546162,5496.258107 11369.354430,5493.695404 11366.842731,5491.461352 11364.046853,5489.577401 11361.029306,5488.075542 11357.834944,5486.988136 11354.517448,5486.347359 11351.147229,5486.140630 11347.786566,5486.388843 11344.479380,5487.079975 11341.296315,5488.212542 11338.298483,5489.751956 11335.529572,5491.675098 11333.041865,5493.947565 11330.887646,5496.534957 11329.092239,5499.381235 11327.698864,5502.441088 11326.732847,5505.658478"/>
    <poly id="26628702" type="building.university" color="255,230,230" fill="1" layer="-1.00" shape="11110.598961,5605.071686 11135.536304,5559.632336 11216.929648,5603.912344 11208.285136,5619.657734 11180.474650,5604.512327 11167.652745,5627.872108 11155.279406,5633.072287 11144.369047,5627.185082 11142.345489,5616.659456 11155.380636,5592.939915 11143.199983,5586.302352 11127.765974,5614.412877 11110.598961,5605.071686"/>
    <poly id="26628703" type="building.university" color="255,230,230" fill="1" layer="-1.00" shape="11042.067215,5568.326047 11053.942186,5547.417113 11056.490363,5548.862133 11062.546947,5538.188700 11113.201934,5566.707246 11102.825897,5584.964710 11067.601531,5565.124480 11060.036863,5578.438389 11042.067215,5568.326047"/>
    <poly id="26628704" type="building.university" color="255,230,230" fill="1" layer="-1.00" shape="11057.371275,5515.995615 11093.317196,5448.344455 11117.133490,5460.887170 11081.187444,5528.538224 11057.371275,5515.995615"/>
    <poly id="26628705" type="building.university" color="255,230,230" fill="1" layer="-1.00" shape="11127.622361,5464.785030 11150.026328,5424.039280 11114.627429,5404.746444 11123.834068,5388.001150 11202.102962,5430.659461 11193.066534,5447.101357 11170.045306,5434.552811 11147.470968,5475.601815 11127.622361,5464.785030"/>
    <poly id="26628706" type="building.university" color="255,230,230" fill="1" layer="-1.00" shape="11193.748763,5395.933471 11229.793092,5329.102414 11253.640643,5341.866890 11217.587126,5408.686929 11193.748763,5395.933471"/>
    <poly id="26628707" type="building.university" color="255,230,230" fill="1" layer="-1.00" shape="11331.962685,5277.733508 11327.200280,5286.536753 11363.477309,5306.000764 11369.767708,5309.376564 11375.151007,5299.428001 11362.355928,5292.569889 11366.667587,5284.597608 11361.092011,5281.606433 11358.506316,5286.367573 11347.381880,5280.395776 11345.025995,5284.741356 11331.962685,5277.733508"/>
    <poly id="26628710" type="building.university" color="255,230,230" fill="1" layer="-1.00" shape="11386.826746,5472.991364 11387.808688,5471.372195 11410.927833,5428.025663 11412.131223,5426.013312 11425.559780,5433.180116 11400.255487,5480.169222 11386.826746,5472.991364"/>
    <poly id="26628711" type="building.university" color="255,230,230" fill="1" layer="-1.00" shape="11374.005754,5486.337641 11380.547034,5475.165841 11396.564615,5484.465120 11390.023322,5495.636907 11374.005754,5486.337641"/>
    <poly id="26628712" type="building.university" color="255,230,230" fill="1" layer="-1.00" shape="11372.234962,5641.766889 11376.308525,5634.665480 11369.763892,5630.950896 11375.703699,5620.590991 11403.295339,5636.274474 11408.405191,5634.768434 11414.068322,5633.106464 11430.802868,5604.203244 11452.746615,5616.808393 11428.560705,5658.556491 11411.432204,5664.067054 11372.234962,5641.766889"/>
    <poly id="26628713" type="building.university" color="255,230,230" fill="1" layer="-1.00" shape="11126.072099,5701.036608 11133.163995,5686.667001 11164.530548,5680.623283 11168.849689,5672.606311 11143.706959,5659.969269 11149.004157,5649.311870 11192.676762,5673.093256 11175.910139,5704.206794 11140.317743,5707.997038 11126.072099,5701.036608"/>
    <poly id="26628713#1" type="sport.tennis" color="79,230,125" fill="1" layer="-2.00" shape="11126.072099,5701.036608 11133.163995,5686.667001 11164.530548,5680.623283 11168.849689,5672.606311 11143.706959,5659.969269 11149.004157,5649.311870 11192.676762,5673.093256 11175.910139,5704.206794 11140.317743,5707.997038 11126.072099,5701.036608"/>
    <poly id="26628714" type="building.hospital" color="255,230,230" fill="1" layer="-1.00" shape="11201.377124,5821.342250 11210.164902,5812.842799 11188.321405,5786.937145 11202.372500,5773.731182 11196.598224,5767.580512 11192.827239,5745.368927 11272.423123,5752.143488 11328.125319,5814.537400 11325.190474,5817.807263 11343.944189,5841.735576 11320.393975,5861.546187 11293.069446,5830.804397 11245.317069,5870.917040 11201.377124,5821.342250"/>
    <poly id="332096195" type="building.school" color="255,230,230" fill="1" layer="-1.00" shape="11741.459333,5756.474538 11717.443044,5778.125387 11721.105303,5782.155979 11715.781794,5786.952204 11710.623037,5791.600665 11707.177816,5787.809749 11681.202410,5811.233545 11669.446887,5798.292068 11729.921112,5743.783745 11741.459333,5756.474538"/>
    <poly id="352453975" type="leisure.park" color="207,245,201" fill="1" layer="-2.00" shape="11195.141732,5573.109928 11199.074834,5566.055784 11216.991910,5535.018043 11253.868214,5554.868575 11231.269921,5593.098197 11195.141732,5573.109928"/>
    <poly id="379724425" type="landuse.residential" color="235,235,227" fill="1" layer="-3.00" shape="12003.290286,4784.662387 12002.534855,4361.731904 12198.664615,4362.593208 12207.332768,4511.453223 12115.604664,4519.054241 12116.524751,4569.821820 12210.314116,4563.643029 12216.717745,4626.973272 12118.865616,4631.072291 12129.090632,4782.908159 12003.290286,4784.662387"/>
    <poly id="392733043" type="amenity.parking_space" color="237,199,199" fill="1" layer="-1.00" shape="11822.365656,4828.058163 11862.127685,4837.138591 11898.008607,4843.569623 11894.235039,4862.931006 11907.145574,4865.169527 11910.720492,4843.492208 11908.339711,4829.366118 11826.564373,4813.816483 11822.365656,4828.058163"/>
    <poly id="392734224" type="leisure.park" color="207,245,201" fill="1" layer="-2.00" shape="11725.576711,5136.550790 11719.013502,5159.778399 11772.233029,5161.871267 11780.047520,5133.844068 11791.320446,5099.261452 11744.740408,5081.388014 11731.842347,5118.513584 11725.576711,5136.550790"/>
    <poly id="392735632" type="building.yes" color="255,230,230" fill="1" layer="-1.00" shape="11725.883347,5158.346695 11769.552852,5157.919972 11771.548883,5140.183185 11744.044244,5139.227617 11742.174415,5137.268627 11740.321375,5139.483254 11737.824542,5136.271893 11733.607205,5140.334431 11731.492909,5138.935615 11730.472524,5141.254905 11728.311063,5140.556440 11726.546124,5144.023636 11729.875598,5146.495979 11729.714344,5148.075698 11732.454209,5148.129284 11731.396467,5154.145984 11726.521653,5154.237054 11726.148475,5156.664890 11725.883347,5158.346695"/>
    <poly id="392735632#1" type="tourism.museum" color="207,245,201" fill="1" layer="-2.00" shape="11725.883347,5158.346695 11769.552852,5157.919972 11771.548883,5140.183185 11744.044244,5139.227617 11742.174415,5137.268627 11740.321375,5139.483254 11737.824542,5136.271893 11733.607205,5140.334431 11731.492909,5138.935615 11730.472524,5141.254905 11728.311063,5140.556440 11726.546124,5144.023636 11729.875598,5146.495979 11729.714344,5148.075698 11732.454209,5148.129284 11731.396467,5154.145984 11726.521653,5154.237054 11726.148475,5156.664890 11725.883347,5158.346695"/>
    <poly id="392747235" type="leisure.park" color="207,245,201" fill="1" layer="-2.00" shape="11679.762727,5822.620057 11705.961308,5851.976820 11725.356952,5873.716676 11735.634414,5864.620426 11789.858331,5816.637727 11745.053356,5764.835958 11679.762727,5822.620057"/>
    <poly id="392752500" type="building.university" color="255,230,230" fill="1" layer="-1.00" shape="11385.466293,5540.713933 11407.572767,5554.325750 11438.745213,5573.508687 11441.804426,5568.582211 11446.440509,5571.437741 11453.097324,5560.718714 11450.134877,5558.893738 11451.963767,5555.957977 11405.584833,5527.392030 11403.491298,5530.766300 11394.917377,5525.495764 11385.466293,5540.713933"/>
    <poly id="393236094" type="amenity.parking" color="184,184,179" fill="1" layer="-1.00" shape="11378.576969,5778.409350 11403.304227,5791.910570 11435.260644,5824.908856 11452.170629,5815.317736 11448.309883,5808.571675 11457.677155,5803.257425 11455.496595,5794.910840 11459.066122,5791.994035 11456.183600,5788.502231 11461.689628,5783.990625 11459.069779,5773.655080 11464.800841,5766.396802 11418.778633,5730.363467 11414.140583,5736.244499 11400.194353,5730.065498 11390.254579,5752.287587 11378.576969,5778.409350"/>
    <poly id="393310537" type="building.residential" color="255,230,230" fill="1" layer="-1.00" shape="11823.588827,5180.011122 11839.037032,5179.421110 11838.884102,5172.119871 11829.221635,5169.713535 11823.638067,5173.926756 11823.588827,5180.011122"/>
    <poly id="393310538" type="building.yes" color="255,230,230" fill="1" layer="-1.00" shape="11812.614020,5168.940231 11812.742358,5179.283653 11819.635442,5178.961638 11819.242191,5168.623765 11812.614020,5168.940231"/>
    <poly id="393310540" type="building.yes" color="255,230,230" fill="1" layer="-1.00" shape="11799.586169,5176.684119 11811.896217,5176.426226 11811.307070,5168.967610 11799.175253,5169.299476 11799.586169,5176.684119"/>
    <poly id="393310541" type="building.residential" color="255,230,230" fill="1" layer="-1.00" shape="11794.638110,5169.483340 11789.140275,5169.776143 11789.799616,5176.367412 11795.995307,5176.071089 11794.638110,5169.483340"/>
    <poly id="393310542" type="building.residential" color="255,230,230" fill="1" layer="-1.00" shape="11799.186241,5178.257735 11811.927133,5177.902008 11812.420764,5184.596658 11799.764706,5185.205930 11799.186241,5178.257735"/>
    <poly id="393310543" type="building.residential" color="255,230,230" fill="1" layer="-1.00" shape="11796.102468,5179.920884 11788.647937,5180.432298 11789.324939,5187.023196 11797.005344,5186.329435 11796.102468,5179.920884"/>
    <poly id="393310545" type="building.residential" color="255,230,230" fill="1" layer="-1.00" shape="11800.823522,5193.154250 11806.803081,5193.084483 11806.431219,5186.720311 11800.338018,5186.847965 11800.823522,5193.154250"/>
    <poly id="393310547" type="building.residential" color="255,230,230" fill="1" layer="-1.00" shape="11790.855281,5195.128151 11799.010211,5194.313439 11797.860074,5187.488231 11789.990506,5188.008340 11790.855281,5195.128151"/>
    <poly id="393310548" type="building.residential" color="255,230,230" fill="1" layer="-1.00" shape="11802.547668,5202.076619 11813.388063,5202.093738 11813.532564,5194.653055 11801.978266,5194.717498 11802.547668,5202.076619"/>
    <poly id="393310550" type="building.residential" color="255,230,230" fill="1" layer="-1.00" shape="11797.879941,5202.352026 11790.070811,5203.226101 11789.926206,5196.324321 11797.790885,5195.571194 11797.879941,5202.352026"/>
    <poly id="393310551" type="building.residential" color="255,230,230" fill="1" layer="-1.00" shape="11811.763969,5211.863319 11811.426499,5204.610349 11802.276035,5205.978753 11803.003686,5212.457582 11811.763969,5211.863319"/>
    <poly id="393310552" type="building.residential" color="255,230,230" fill="1" layer="-1.00" shape="11802.881321,5226.436278 11812.334561,5225.183641 11812.425828,5215.201949 11802.007934,5215.953050 11802.881321,5226.436278"/>
    <poly id="393310554" type="building.residential" color="255,230,230" fill="1" layer="-1.00" shape="11798.634675,5224.460466 11798.237001,5216.864627 11788.060092,5217.310970 11788.397355,5224.974681 11798.634675,5224.460466"/>
    <poly id="393310555" type="building.residential" color="255,230,230" fill="1" layer="-1.00" shape="11798.860849,5232.304121 11798.731128,5226.112492 11787.948862,5226.338397 11788.040486,5233.241288 11798.860849,5232.304121"/>
    <poly id="393310557" type="building.residential" color="255,230,230" fill="1" layer="-1.00" shape="11798.291354,5213.555396 11797.057317,5205.677353 11788.256365,5206.860835 11789.060720,5214.048518 11798.291354,5213.555396"/>
    <poly id="393310558" type="building.residential" color="255,230,230" fill="1" layer="-1.00" shape="11803.486795,5240.999180 11811.893592,5240.823058 11812.170054,5228.717199 11802.871346,5228.912006 11803.486795,5240.999180"/>
    <poly id="393310559" type="building.residential" color="255,230,230" fill="1" layer="-1.00" shape="11789.344717,5241.939332 11800.171345,5241.301761 11799.855015,5234.636700 11788.903815,5234.810639 11789.344717,5241.939332"/>
    <poly id="393310561" type="building.yes" color="255,230,230" fill="1" layer="-1.00" shape="11804.667358,5246.746956 11798.630905,5247.051040 11798.921359,5243.625853 11804.648972,5242.917503 11804.667358,5246.746956"/>
    <poly id="393642753" type="amenity.parking" color="184,184,179" fill="1" layer="-1.00" shape="11628.835306,5460.829729 11632.089706,5458.041731 11614.321367,5433.914496 11590.641849,5450.174618 11596.705868,5458.350959 11616.566052,5444.901807 11628.835306,5460.829729"/>
    <poly id="394374373" type="building.university" color="255,230,230" fill="1" layer="-1.00" shape="11433.123814,5599.458780 11454.782460,5612.369649 11476.335876,5576.504937 11454.668348,5563.594196 11433.123814,5599.458780"/>
    <poly id="394377368" type="amenity.parking_space" color="237,199,199" fill="1" layer="-1.00" shape="11381.957399,5468.286893 11387.808688,5471.372195 11410.927833,5428.025663 11405.067461,5424.929433 11381.957399,5468.286893"/>
    <poly id="395577224" type="amenity.parking" color="184,184,179" fill="1" layer="-1.00" shape="12255.472886,4913.455769 12281.978981,4911.414473 12281.840826,4904.801200 12292.967062,4902.837029 12293.058478,4901.292089 12293.262239,4897.935350 12269.791818,4901.078783 12269.588088,4904.013688 12254.984526,4906.150453 12255.472886,4913.455769"/>
    <poly id="416461493" type="amenity.school" color="237,199,199" fill="1" layer="-1.00" shape="10876.839444,5857.246347 10888.807182,5772.004527 11000.880270,5793.611704 10961.387481,5892.820706 10876.839444,5857.246347"/>
    <poly id="416466761" type="amenity.school" color="237,199,199" fill="1" layer="-1.00" shape="11621.323017,5274.079820 11756.119552,5277.004184 11759.544267,5170.618303 11620.906632,5164.499549 11621.323017,5274.079820"/>
    <poly id="416466762" type="amenity.school" color="237,199,199" fill="1" layer="-1.00" shape="11916.753886,5228.314152 11986.898027,5181.775940 11965.117380,5084.954031 11909.790155,5084.324955 11877.755112,5098.228080 11848.036888,5137.115507 11845.239190,5157.921826 11865.923356,5185.030140 11884.078373,5194.307794 11916.753886,5228.314152"/>
    <poly id="416467610" type="landuse.residential" color="235,235,227" fill="1" layer="-3.00" shape="12050.490852,5091.049290 12110.655674,5082.630764 12107.981821,4999.551643 12102.659137,4909.367809 12099.034987,4870.834491 12004.178176,4880.300757 12020.192894,4973.058314 12047.680320,5091.418913 12050.490852,5091.049290"/>
    <poly id="416467611" type="building.yes" color="255,230,230" fill="1" layer="-1.00" shape="12022.349507,4835.860868 12104.467972,4826.872124 12106.559391,4845.766610 12102.531014,4846.206079 12103.358105,4853.648622 12080.060984,4856.211715 12079.615133,4852.213596 12066.058473,4853.718244 12065.666286,4850.174142 12036.041448,4853.491366 12036.519152,4857.744140 12012.464902,4860.434273 12008.279726,4858.024124 12004.514612,4849.510762 12005.509816,4845.560200 12009.562889,4842.078504 12022.873222,4840.623322 12022.349507,4835.860868"/>
    <poly id="416469996" type="amenity.school" color="237,199,199" fill="1" layer="-1.00" shape="12479.813959,5720.193984 12481.465060,5668.939797 12447.699692,5668.012767 12447.667115,5640.638531 12339.357122,5641.279530 12337.750231,5707.718966 12349.128924,5718.315806 12479.813959,5720.193984"/>
    <poly id="416504285" type="landuse.residential" color="235,235,227" fill="1" layer="-3.00" shape="11618.859296,4991.466940 11631.735095,4993.317220 11635.354018,5024.335202 11658.814353,5018.203987 11653.362432,4988.667561 11687.996493,4977.362228 11666.882631,4923.909576 11688.847079,4915.944861 11687.883809,4903.709569 11711.783503,4896.603532 11719.451201,4898.663023 11720.853767,4886.333742 11727.632884,4878.032448 11697.383897,4833.441041 11600.306663,4872.276171 11583.178368,5000.452219 11587.797921,5009.247217 11602.113389,5011.500192 11615.979782,5002.450700 11618.859296,4991.466940"/>
    <poly id="435326230" type="building.school" color="255,230,230" fill="1" layer="-1.00" shape="11817.299872,5778.430353 11826.890673,5770.281100 11817.862475,5759.746702 11830.091861,5749.355277 11859.268187,5783.401339 11837.448030,5801.941953 11831.308507,5794.777230 11817.299872,5778.430353"/>
    <poly id="435326231" type="building.school" color="255,230,230" fill="1" layer="-1.00" shape="11761.300756,5764.073573 11782.830856,5745.183603 11820.996067,5788.299395 11815.314427,5793.291774 11799.466238,5807.200364 11780.293036,5785.533386 11761.300756,5764.073573"/>
    <poly id="435327107" type="leisure.pitch" color="207,245,201" fill="1" layer="-2.00" shape="11287.348660,5338.716277 11313.905322,5290.790231 11366.525081,5318.192269 11340.421093,5365.387062 11287.348660,5338.716277"/>
    <poly id="435327107#1" type="sport.multi" color="79,230,125" fill="1" layer="-2.00" shape="11287.348660,5338.716277 11313.905322,5290.790231 11366.525081,5318.192269 11340.421093,5365.387062 11287.348660,5338.716277"/>
    <poly id="435327778" type="building.university" color="255,230,230" fill="1" layer="-1.00" shape="11218.850372,5673.841764 11237.704695,5640.331021 11227.424858,5634.596971 11237.950471,5615.881387 11306.942974,5654.439461 11318.251028,5660.762556 11330.057054,5667.241718 11321.651933,5682.193781 11261.269851,5648.527786 11240.295106,5685.812992 11218.850372,5673.841764"/>
    <poly id="435327779" type="building.university" color="255,230,230" fill="1" layer="-1.00" shape="11253.444320,5695.671828 11259.556921,5695.643253 11259.576806,5700.371874 11312.019888,5700.135609 11312.001492,5696.317243 11315.817538,5696.303664 11315.776549,5685.103591 11283.720274,5685.233279 11283.682399,5675.864808 11260.247648,5675.968812 11260.286715,5685.392765 11253.396581,5685.415480 11253.444320,5695.671828"/>
    <poly id="448204961" type="leisure.pitch" color="207,245,201" fill="1" layer="-2.00" shape="11855.871521,5839.277150 11831.085116,5810.678525 11838.218359,5804.556748 11857.725736,5787.785236 11882.503510,5816.395219 11855.871521,5839.277150"/>
    <poly id="448204961#1" type="sport.multi;basketball" color="79,230,125" fill="1" layer="-2.00" shape="11855.871521,5839.277150 11831.085116,5810.678525 11838.218359,5804.556748 11857.725736,5787.785236 11882.503510,5816.395219 11855.871521,5839.277150"/>
    <poly id="448707045" type="building.university" color="255,230,230" fill="1" layer="-1.00" shape="11256.347028,5263.825328 11282.764580,5278.645075 11251.536732,5333.818463 11225.110221,5318.987907 11256.347028,5263.825328"/>
    <poly id="448707150" type="building.university" color="255,230,230" fill="1" layer="-1.00" shape="11171.288341,5363.846412 11187.558901,5372.129797 11173.945802,5398.636665 11157.675277,5390.353307 11171.288341,5363.846412"/>
    <poly id="448707896" type="building.yes" color="255,230,230" fill="1" layer="-1.00" shape="11460.357081,5502.974254 11470.404744,5508.591353 11465.984128,5516.421558 11473.645176,5520.712238 11468.279101,5530.216340 11433.487255,5510.742950 11436.954019,5504.609006 11438.580955,5505.518433 11440.216284,5502.620036 11455.672280,5511.265152 11460.357081,5502.974254"/>
    <poly id="448707897" type="building.yes" color="255,230,230" fill="1" layer="-1.00" shape="11440.248239,5435.136317 11460.230949,5435.527166 11459.389077,5477.484454 11454.908322,5477.400906 11454.715020,5487.129450 11439.213184,5486.822155 11440.248239,5435.136317"/>
    <poly id="448707898" type="building.yes" color="255,230,230" fill="1" layer="-1.00" shape="11411.641860,5512.511584 11421.027455,5517.309952 11416.842538,5525.423863 11407.465779,5520.625315 11411.641860,5512.511584"/>
    <poly id="448707899" type="building.university" color="255,230,230" fill="1" layer="-1.00" shape="11370.657188,5675.580435 11389.805771,5675.400250 11389.893244,5684.612258 11400.695157,5684.507500 11400.746188,5690.722999 11370.804567,5691.007758 11370.657188,5675.580435"/>